Sender: LSF System <lsfadmin@b2046>
Subject: Job 7673550: <4-boatSea-7du-2L-modelMesh-hrrp-lowphi-3D> in cluster <magiccube3> Done

Job <4-boatSea-7du-2L-modelMesh-hrrp-lowphi-3D> was submitted from host <ln06> by user <tshu008> in cluster <magiccube3> at Fri Apr 26 23:01:38 2024
Job was executed on host(s) <32*b2046>, in queue <LS-DYNA>, as user <tshu008> in cluster <magiccube3> at Sun Apr 28 13:09:23 2024
                            <32*b2061>
                            <32*b2068>
                            <32*b1874>
                            <32*b2024>
                            <32*b2056>
                            <32*b2026>
                            <32*b2013>
</public/home/users/tshu008> was used as the home directory.
</public/home/users/tshu008/czh> was used as the working directory.
Started at Sun Apr 28 13:09:23 2024
Terminated at Mon Apr 29 22:43:08 2024
Results reported at Mon Apr 29 22:43:08 2024

Your job looked like:

------------------------------------------------------------
# LSBATCH: User input

#!/bin/bash
#BSUB -q snode
#BSUB -n 256
#BSUB -R "span[ptile=32]"
#BSUB -J 4-boatSea-7du-2L-modelMesh-hrrp-lowphi-3D
#BSUB -eo %J.output

CURDIR=$PWD
cd $CURDIR

APP_NAME=esource
NP=256
NP_PER_NODE=16
RUN="RAW"


#Create nodelist

rm -f nodelist
touch nodelist

#start creating .nodelist
for i in `echo $LSB_HOSTS`
do
echo $i >> $PWD/nodelist
done
NP=`cat $PWD/nodelist|wc -w`

NODELIST=""
for i in `cat $PWD/nodelist | sort | uniq`
do
NUM_PROC=`cat $PWD/nodelist | grep $i | wc -l`
if [ "$NODELIST" = "" ]; then
   NODELIST="['$i',$NUM_PROC]"
else
   NODELIST="$NODELIST,['$i',$NUM_PROC]"
fi
done

echo "NODELIST is $NODELIST"

export PATH=/public/home/users/tshu008/software/altair/feko/bin/:/public/home/users/hpcplusadmin1/h:/public/ibm/lsf10/10.1/linux3.10-glibc2.17-x86_64/etc:/public/ibm/lsf10/10.1/linux3.10-glibc2.17-x86_64/bin:/usr/lib64/qt-3.3/bin:/public/home/users/tshu008/perl5/bin:/opt/clusconf/bin:/usr/bin:/bin:/usr/sbin:/sbin:/usr/local/openssh/bin:/usr/local/sbin:/public/home/users/tshu008/.local/bin:/public/home/users/tshu008/bin
runfeko 4-boatSea-7du-2L-modelMesh-hrrp-lowphi-3D -np 256 --machines-file $LSB_DJOB_HOSTFILE



------------------------------------------------------------

Successfully completed.

Resource usage summary:

    CPU time :                                   3862564.50 sec.
    Max Memory :                                 2849 MB
    Average Memory :                             2847.23 MB
    Total Requested Memory :                     -
    Delta Memory :                               -
    Max Swap :                                   125 MB
    Max Processes :                              49
    Max Threads :                                59
    Run time :                                   120824 sec.
    Turnaround time :                            258090 sec.

The output (if any) follows:

NODELIST is ['b1874',32],['b2013',32],['b2024',32],['b2026',32],['b2046',32],['b2056',32],['b2061',32],['b2068',32]

RUNFEKO Version 2017.1-14 from 2016-11-25
        Copyright (c) 1999-2014 Altair Development S.A. (Pty) Ltd
        Copyright (c) 2014-2017 Altair Engineering, Inc.

NOTE: Running CADFEKO_BATCH since file "4-boatSea-7du-2L-modelMesh-hrrp-lowphi-3D.pre" not found

CADFEKO_BATCH Version 2017.1-300391 (x64) from 2017-03-15
          Copyright (c) 1999-2014 Altair Development S.A. (Pty) Ltd
          Copyright (c) 2014-2017 Altair Engineering, Inc.

Loading mesh entities...... 50%100%
Building connectivity map......100%100%
Loading mesh entities...... 50%100%
Building connectivity map......100%100%
Warning 16097: 'MeshImport' has not been remeshed because it is being used as the simulation mesh.
Warning 16097: 'MeshImport_1' has not been remeshed because it is being used as the simulation mesh.
Mesh has been generated:
 112571 triangles
_ 50%100%100%
Saving MeshImport_1... 50%100%100%
Saving cfm file...... 50%100%100%
Saving geometry......100%100%
NOTE: Running PREFEKO since file "4-boatSea-7du-2L-modelMesh-hrrp-lowphi-3D.fek" not found

PREFEKO Version 2017.1-34 from 2017-02-06
        Copyright (c) 1999-2014 Altair Development S.A. (Pty) Ltd
        Copyright (c) 2014-2017 Altair Engineering, Inc.


Creating file 4-boatSea-7du-2L-modelMesh-hrrp-lowphi-3D.fek, please be patient ...
File 4-boatSea-7du-2L-modelMesh-hrrp-lowphi-3D.fek has been created:
 112571 metallic triangles in free space

 

FEKO.CSV  Version 2017.1-403 from 2017-03-14
          Copyright (c) 1999-2014 Altair Development S.A. (Pty) Ltd
          Copyright (c) 2014-2017 Altair Engineering, Inc.

File:     4-boatSea-7du-2L-modelMesh-hrrp-lowphi-3D
Memory:   Unlimited, system allows maximum usage of 5.850 GByte
          (for parallel runs memory limit is per process)
          (installed memory 187.403 GByte, thereof free 177.926 GByte)

---> Process    1 of 256 active on b2046                       (PID:   171958) using 1 threads
---> Process    4 of 256 active on b2046                       (PID:   171961) using 1 threads
---> Process    0 of 256 active on b2046                       (PID:   171957) using 1 threads
---> Process  160 of 256 active on b2056                       (PID:   210162) using 1 threads
---> Process  128 of 256 active on b2024                       (PID:   204411) using 1 threads
---> Process  176 of 256 active on b2056                       (PID:   210178) using 1 threads
---> Process  224 of 256 active on b2013                       (PID:    36009) using 1 threads
---> Process  144 of 256 active on b2024                       (PID:   204427) using 1 threads
---> Process    2 of 256 active on b2046                       (PID:   171959) using 1 threads
---> Process   32 of 256 active on b2061                       (PID:   164171) using 1 threads
---> Process   64 of 256 active on b2068                       (PID:     6953) using 1 threads
---> Process  240 of 256 active on b2013                       (PID:    36025) using 1 threads
---> Process   48 of 256 active on b2061                       (PID:   164187) using 1 threads
---> Process  164 of 256 active on b2056                       (PID:   210166) using 1 threads
---> Process   72 of 256 active on b2068                       (PID:     6961) using 1 threads
---> Process  226 of 256 active on b2013                       (PID:    36011) using 1 threads
---> Process   33 of 256 active on b2061                       (PID:   164172) using 1 threads
---> Process  161 of 256 active on b2056                       (PID:   210163) using 1 threads
---> Process   66 of 256 active on b2068                       (PID:     6955) using 1 threads
---> Process  192 of 256 active on b2026                       (PID:   208175) using 1 threads
---> Process  132 of 256 active on b2024                       (PID:   204415) using 1 threads
---> Process   16 of 256 active on b2046                       (PID:   171973) using 1 threads
---> Process  225 of 256 active on b2013                       (PID:    36010) using 1 threads
---> Process   40 of 256 active on b2061                       (PID:   164179) using 1 threads
---> Process  168 of 256 active on b2056                       (PID:   210170) using 1 threads
---> Process   80 of 256 active on b2068                       (PID:     6969) using 1 threads
---> Process  208 of 256 active on b2026                       (PID:   208191) using 1 threads
---> Process  136 of 256 active on b2024                       (PID:   204419) using 1 threads
---> Process   20 of 256 active on b2046                       (PID:   171977) using 1 threads
---> Process  228 of 256 active on b2013                       (PID:    36013) using 1 threads
---> Process   36 of 256 active on b2061                       (PID:   164175) using 1 threads
---> Process  162 of 256 active on b2056                       (PID:   210164) using 1 threads
---> Process   65 of 256 active on b2068                       (PID:     6954) using 1 threads
---> Process  193 of 256 active on b2026                       (PID:   208176) using 1 threads
---> Process  129 of 256 active on b2024                       (PID:   204412) using 1 threads
---> Process    9 of 256 active on b2046                       (PID:   171966) using 1 threads
---> Process  242 of 256 active on b2013                       (PID:    36027) using 1 threads
---> Process   34 of 256 active on b2061                       (PID:   164173) using 1 threads
---> Process  184 of 256 active on b2056                       (PID:   210186) using 1 threads
---> Process   68 of 256 active on b2068                       (PID:     6957) using 1 threads
---> Process  196 of 256 active on b2026                       (PID:   208179) using 1 threads
---> Process  130 of 256 active on b2024                       (PID:   204413) using 1 threads
---> Process    6 of 256 active on b2046                       (PID:   171963) using 1 threads
---> Process  232 of 256 active on b2013                       (PID:    36017) using 1 threads
---> Process   52 of 256 active on b2061                       (PID:   164191) using 1 threads
---> Process  180 of 256 active on b2056                       (PID:   210182) using 1 threads
---> Process   73 of 256 active on b2068                       (PID:     6962) using 1 threads
---> Process  200 of 256 active on b2026                       (PID:   208183) using 1 threads
---> Process  152 of 256 active on b2024                       (PID:   204435) using 1 threads
---> Process   17 of 256 active on b2046                       (PID:   171974) using 1 threads
---> Process  241 of 256 active on b2013                       (PID:    36026) using 1 threads
---> Process   50 of 256 active on b2061                       (PID:   164189) using 1 threads
---> Process  177 of 256 active on b2056                       (PID:   210179) using 1 threads
---> Process   76 of 256 active on b2068                       (PID:     6965) using 1 threads
---> Process  194 of 256 active on b2026                       (PID:   208177) using 1 threads
---> Process  145 of 256 active on b2024                       (PID:   204428) using 1 threads
---> Process    8 of 256 active on b2046                       (PID:   171965) using 1 threads
---> Process  244 of 256 active on b2013                       (PID:    36029) using 1 threads
---> Process   56 of 256 active on b2061                       (PID:   164195) using 1 threads
---> Process  178 of 256 active on b2056                       (PID:   210180) using 1 threads
---> Process   74 of 256 active on b2068                       (PID:     6963) using 1 threads
---> Process  210 of 256 active on b2026                       (PID:   208193) using 1 threads
---> Process  148 of 256 active on b2024                       (PID:   204431) using 1 threads
---> Process   22 of 256 active on b2046                       (PID:   171979) using 1 threads
---> Process  248 of 256 active on b2013                       (PID:    36033) using 1 threads
---> Process   49 of 256 active on b2061                       (PID:   164188) using 1 threads
---> Process  182 of 256 active on b2056                       (PID:   210184) using 1 threads
---> Process   81 of 256 active on b2068                       (PID:     6970) using 1 threads
---> Process  202 of 256 active on b2026                       (PID:   208185) using 1 threads
---> Process  146 of 256 active on b2024                       (PID:   204429) using 1 threads
---> Process   10 of 256 active on b2046                       (PID:   171967) using 1 threads
---> Process  227 of 256 active on b2013                       (PID:    36012) using 1 threads
---> Process   38 of 256 active on b2061                       (PID:   164177) using 1 threads
---> Process  165 of 256 active on b2056                       (PID:   210167) using 1 threads
---> Process   67 of 256 active on b2068                       (PID:     6956) using 1 threads
---> Process  201 of 256 active on b2026                       (PID:   208184) using 1 threads
---> Process  147 of 256 active on b2024                       (PID:   204430) using 1 threads
---> Process    3 of 256 active on b2046                       (PID:   171960) using 1 threads
---> Process  229 of 256 active on b2013                       (PID:    36014) using 1 threads
---> Process   41 of 256 active on b2061                       (PID:   164180) using 1 threads
---> Process  166 of 256 active on b2056                       (PID:   210168) using 1 threads
---> Process   82 of 256 active on b2068                       (PID:     6971) using 1 threads
---> Process  204 of 256 active on b2026                       (PID:   208187) using 1 threads
---> Process  134 of 256 active on b2024                       (PID:   204417) using 1 threads
---> Process   30 of 256 active on b2046                       (PID:   171987) using 1 threads
---> Process  253 of 256 active on b2013                       (PID:    36038) using 1 threads
---> Process   53 of 256 active on b2061                       (PID:   164192) using 1 threads
---> Process  170 of 256 active on b2056                       (PID:   210172) using 1 threads
---> Process   84 of 256 active on b2068                       (PID:     6973) using 1 threads
---> Process  212 of 256 active on b2026                       (PID:   208195) using 1 threads
---> Process  133 of 256 active on b2024                       (PID:   204416) using 1 threads
---> Process   24 of 256 active on b2046                       (PID:   171981) using 1 threads
---> Process  230 of 256 active on b2013                       (PID:    36015) using 1 threads
---> Process   42 of 256 active on b2061                       (PID:   164181) using 1 threads
---> Process  172 of 256 active on b2056                       (PID:   210174) using 1 threads
---> Process   88 of 256 active on b2068                       (PID:     6977) using 1 threads
---> Process  216 of 256 active on b2026                       (PID:   208199) using 1 threads
---> Process  140 of 256 active on b2024                       (PID:   204423) using 1 threads
---> Process   26 of 256 active on b2046                       (PID:   171983) using 1 threads
---> Process  234 of 256 active on b2013                       (PID:    36019) using 1 threads
---> Process   37 of 256 active on b2061                       (PID:   164176) using 1 threads
---> Process  181 of 256 active on b2056                       (PID:   210183) using 1 threads
---> Process   69 of 256 active on b2068                       (PID:     6958) using 1 threads
---> Process  209 of 256 active on b2026                       (PID:   208192) using 1 threads
---> Process  138 of 256 active on b2024                       (PID:   204421) using 1 threads
---> Process    5 of 256 active on b2046                       (PID:   171962) using 1 threads
---> Process  236 of 256 active on b2013                       (PID:    36021) using 1 threads
---> Process   44 of 256 active on b2061                       (PID:   164183) using 1 threads
---> Process  169 of 256 active on b2056                       (PID:   210171) using 1 threads
---> Process   70 of 256 active on b2068                       (PID:     6959) using 1 threads
---> Process  198 of 256 active on b2026                       (PID:   208181) using 1 threads
---> Process  137 of 256 active on b2024                       (PID:   204420) using 1 threads
---> Process   21 of 256 active on b2046                       (PID:   171978) using 1 threads
---> Process  233 of 256 active on b2013                       (PID:    36018) using 1 threads
---> Process   35 of 256 active on b2061                       (PID:   164174) using 1 threads
---> Process  163 of 256 active on b2056                       (PID:   210165) using 1 threads
---> Process   77 of 256 active on b2068                       (PID:     6966) using 1 threads
---> Process  197 of 256 active on b2026                       (PID:   208180) using 1 threads
---> Process  131 of 256 active on b2024                       (PID:   204414) using 1 threads
---> Process   18 of 256 active on b2046                       (PID:   171975) using 1 threads
---> Process  243 of 256 active on b2013                       (PID:    36028) using 1 threads
---> Process   54 of 256 active on b2061                       (PID:   164193) using 1 threads
---> Process  173 of 256 active on b2056                       (PID:   210175) using 1 threads
---> Process   75 of 256 active on b2068                       (PID:     6964) using 1 threads
---> Process  195 of 256 active on b2026                       (PID:   208178) using 1 threads
---> Process  154 of 256 active on b2024                       (PID:   204437) using 1 threads
---> Process   25 of 256 active on b2046                       (PID:   171982) using 1 threads
---> Process  235 of 256 active on b2013                       (PID:    36020) using 1 threads
---> Process   51 of 256 active on b2061                       (PID:   164190) using 1 threads
---> Process  185 of 256 active on b2056                       (PID:   210187) using 1 threads
---> Process   78 of 256 active on b2068                       (PID:     6967) using 1 threads
---> Process  211 of 256 active on b2026                       (PID:   208194) using 1 threads
---> Process  153 of 256 active on b2024                       (PID:   204436) using 1 threads
---> Process   12 of 256 active on b2046                       (PID:   171969) using 1 threads
---> Process  237 of 256 active on b2013                       (PID:    36022) using 1 threads
---> Process   62 of 256 active on b2061                       (PID:   164201) using 1 threads
---> Process  186 of 256 active on b2056                       (PID:   210188) using 1 threads
---> Process   83 of 256 active on b2068                       (PID:     6972) using 1 threads
---> Process  217 of 256 active on b2026                       (PID:   208200) using 1 threads
---> Process  156 of 256 active on b2024                       (PID:   204439) using 1 threads
---> Process   29 of 256 active on b2046                       (PID:   171986) using 1 threads
---> Process  238 of 256 active on b2013                       (PID:    36023) using 1 threads
---> Process   57 of 256 active on b2061                       (PID:   164196) using 1 threads
---> Process  188 of 256 active on b2056                       (PID:   210190) using 1 threads
---> Process   89 of 256 active on b2068                       (PID:     6978) using 1 threads
---> Process  203 of 256 active on b2026                       (PID:   208186) using 1 threads
---> Process  149 of 256 active on b2024                       (PID:   204432) using 1 threads
---> Process   28 of 256 active on b2046                       (PID:   171985) using 1 threads
---> Process  246 of 256 active on b2013                       (PID:    36031) using 1 threads
---> Process   58 of 256 active on b2061                       (PID:   164197) using 1 threads
---> Process  179 of 256 active on b2056                       (PID:   210181) using 1 threads
---> Process   92 of 256 active on b2068                       (PID:     6981) using 1 threads
---> Process  205 of 256 active on b2026                       (PID:   208188) using 1 threads
---> Process  150 of 256 active on b2024                       (PID:   204433) using 1 threads
---> Process    7 of 256 active on b2046                       (PID:   171964) using 1 threads
---> Process  251 of 256 active on b2013                       (PID:    36036) using 1 threads
---> Process   60 of 256 active on b2061                       (PID:   164199) using 1 threads
---> Process  183 of 256 active on b2056                       (PID:   210185) using 1 threads
---> Process   90 of 256 active on b2068                       (PID:     6979) using 1 threads
---> Process  206 of 256 active on b2026                       (PID:   208189) using 1 threads
---> Process  142 of 256 active on b2024                       (PID:   204425) using 1 threads
---> Process   23 of 256 active on b2046                       (PID:   171980) using 1 threads
---> Process  245 of 256 active on b2013                       (PID:    36030) using 1 threads
---> Process   43 of 256 active on b2061                       (PID:   164182) using 1 threads
---> Process  167 of 256 active on b2056                       (PID:   210169) using 1 threads
---> Process   86 of 256 active on b2068                       (PID:     6975) using 1 threads
---> Process  214 of 256 active on b2026                       (PID:   208197) using 1 threads
---> Process  135 of 256 active on b2024                       (PID:   204418) using 1 threads
---> Process   19 of 256 active on b2046                       (PID:   171976) using 1 threads
---> Process  252 of 256 active on b2013                       (PID:    36037) using 1 threads
---> Process   45 of 256 active on b2061                       (PID:   164184) using 1 threads
---> Process  171 of 256 active on b2056                       (PID:   210173) using 1 threads
---> Process   79 of 256 active on b2068                       (PID:     6968) using 1 threads
---> Process  213 of 256 active on b2026                       (PID:   208196) using 1 threads
---> Process  141 of 256 active on b2024                       (PID:   204424) using 1 threads
---> Process   27 of 256 active on b2046                       (PID:   171984) using 1 threads
---> Process  249 of 256 active on b2013                       (PID:    36034) using 1 threads
---> Process   46 of 256 active on b2061                       (PID:   164185) using 1 threads
---> Process  174 of 256 active on b2056                       (PID:   210176) using 1 threads
---> Process   71 of 256 active on b2068                       (PID:     6960) using 1 threads
---> Process  218 of 256 active on b2026                       (PID:   208201) using 1 threads
---> Process  139 of 256 active on b2024                       (PID:   204422) using 1 threads
---> Process   11 of 256 active on b2046                       (PID:   171968) using 1 threads
---> Process  250 of 256 active on b2013                       (PID:    36035) using 1 threads
---> Process   55 of 256 active on b2061                       (PID:   164194) using 1 threads
---> Process  187 of 256 active on b2056                       (PID:   210189) using 1 threads
---> Process   85 of 256 active on b2068                       (PID:     6974) using 1 threads
---> Process  220 of 256 active on b2026                       (PID:   208203) using 1 threads
---> Process  155 of 256 active on b2024                       (PID:   204438) using 1 threads
---> Process   13 of 256 active on b2046                       (PID:   171970) using 1 threads
---> Process  231 of 256 active on b2013                       (PID:    36016) using 1 threads
---> Process   39 of 256 active on b2061                       (PID:   164178) using 1 threads
---> Process  189 of 256 active on b2056                       (PID:   210191) using 1 threads
---> Process   94 of 256 active on b2068                       (PID:     6983) using 1 threads
---> Process  207 of 256 active on b2026                       (PID:   208190) using 1 threads
---> Process  158 of 256 active on b2024                       (PID:   204441) using 1 threads
---> Process   98 of 256 active on b1874                       (PID:   101795) using 1 threads
---> Process   14 of 256 active on b2046                       (PID:   171971) using 1 threads
---> Process  247 of 256 active on b2013                       (PID:    36032) using 1 threads
---> Process   59 of 256 active on b2061                       (PID:   164198) using 1 threads
---> Process  190 of 256 active on b2056                       (PID:   210192) using 1 threads
---> Process   93 of 256 active on b2068                       (PID:     6982) using 1 threads
---> Process  223 of 256 active on b2026                       (PID:   208206) using 1 threads
---> Process  157 of 256 active on b2024                       (PID:   204440) using 1 threads
---> Process  103 of 256 active on b1874                       (PID:   101800) using 1 threads
---> Process   31 of 256 active on b2046                       (PID:   171988) using 1 threads
---> Process  254 of 256 active on b2013                       (PID:    36039) using 1 threads
---> Process   61 of 256 active on b2061                       (PID:   164200) using 1 threads
---> Process  191 of 256 active on b2056                       (PID:   210193) using 1 threads
---> Process   91 of 256 active on b2068                       (PID:     6980) using 1 threads
---> Process  199 of 256 active on b2026                       (PID:   208182) using 1 threads
---> Process  143 of 256 active on b2024                       (PID:   204426) using 1 threads
---> Process  116 of 256 active on b1874                       (PID:   101813) using 1 threads
---> Process   15 of 256 active on b2046                       (PID:   171972) using 1 threads
---> Process  255 of 256 active on b2013                       (PID:    36040) using 1 threads
---> Process   63 of 256 active on b2061                       (PID:   164202) using 1 threads
---> Process  175 of 256 active on b2056                       (PID:   210177) using 1 threads
---> Process   87 of 256 active on b2068                       (PID:     6976) using 1 threads
---> Process  215 of 256 active on b2026                       (PID:   208198) using 1 threads
---> Process  151 of 256 active on b2024                       (PID:   204434) using 1 threads
---> Process  124 of 256 active on b1874                       (PID:   101821) using 1 threads
---> Process  239 of 256 active on b2013                       (PID:    36024) using 1 threads
---> Process   47 of 256 active on b2061                       (PID:   164186) using 1 threads
---> Process   95 of 256 active on b2068                       (PID:     6984) using 1 threads
---> Process  222 of 256 active on b2026                       (PID:   208205) using 1 threads
---> Process  159 of 256 active on b2024                       (PID:   204442) using 1 threads
---> Process  101 of 256 active on b1874                       (PID:   101798) using 1 threads
---> Process  219 of 256 active on b2026                       (PID:   208202) using 1 threads
---> Process  106 of 256 active on b1874                       (PID:   101803) using 1 threads
---> Process  221 of 256 active on b2026                       (PID:   208204) using 1 threads
---> Process  108 of 256 active on b1874                       (PID:   101805) using 1 threads
---> Process  113 of 256 active on b1874                       (PID:   101810) using 1 threads
---> Process  114 of 256 active on b1874                       (PID:   101811) using 1 threads
---> Process  121 of 256 active on b1874                       (PID:   101818) using 1 threads
---> Process   99 of 256 active on b1874                       (PID:   101796) using 1 threads
---> Process  102 of 256 active on b1874                       (PID:   101799) using 1 threads
---> Process  107 of 256 active on b1874                       (PID:   101804) using 1 threads
---> Process  109 of 256 active on b1874                       (PID:   101806) using 1 threads
---> Process  118 of 256 active on b1874                       (PID:   101815) using 1 threads
---> Process  112 of 256 active on b1874                       (PID:   101809) using 1 threads
---> Process  115 of 256 active on b1874                       (PID:   101812) using 1 threads
---> Process  117 of 256 active on b1874                       (PID:   101814) using 1 threads
---> Process  122 of 256 active on b1874                       (PID:   101819) using 1 threads
---> Process  100 of 256 active on b1874                       (PID:   101797) using 1 threads
---> Process  111 of 256 active on b1874                       (PID:   101808) using 1 threads
---> Process  119 of 256 active on b1874                       (PID:   101816) using 1 threads
---> Process  125 of 256 active on b1874                       (PID:   101822) using 1 threads
---> Process  126 of 256 active on b1874                       (PID:   101823) using 1 threads
---> Process  104 of 256 active on b1874                       (PID:   101801) using 1 threads
---> Process  110 of 256 active on b1874                       (PID:   101807) using 1 threads
---> Process  127 of 256 active on b1874                       (PID:   101824) using 1 threads
---> Process   97 of 256 active on b1874                       (PID:   101794) using 1 threads
---> Process  105 of 256 active on b1874                       (PID:   101802) using 1 threads
---> Process  123 of 256 active on b1874                       (PID:   101820) using 1 threads
---> Process  120 of 256 active on b1874                       (PID:   101817) using 1 threads
---> Process   96 of 256 active on b1874                       (PID:   101793) using 1 threads
 Processing the geometrical data for triangles
    0%  100%  
 Processing the geometric data for UTD/RL-GO regions
 Checking the geometrical input data
 --- Processing frequency 1 of 150 ( 9.30000E+09 Hz)
 --- Direction of incidence loop: 1 of 3
 +++ Processing configuration: StandardConfiguration1
 Checking the geometrical input data (frequency dependent)
 Ray launching/tracing for RL-GO (all sources)
    0%    1%    2%    3%    4%    5%    6%    7%    8%    9%   10%   11%   12%   13%   14%   15%   16%   17%   18%   19%   20%   21%   22%   23%   24%   25%   26%   27%   28%   29%   30%   31%   32%   33%   34%   35%   36%   37%   38%   39%   40%   41%   42%   43%   44%   45%   46%   47%   48%   49%   50%   51%   52%   53%   54%   55%   56%   57%   58%   59%   60%   61%   62%   63%   64%   65%   66%   67%   68%   69%   70%   71%   72%   73%   74%   75%   76%   77%   78%   79%   80%   81%   82%   83%   84%   85%   86%   87%   88%   89%   90%   91%   92%   93%   94%   95%   96%   97%   98%   99%  100%  100%  
 --> Currently a memory of 56.158 MByte has been allocated per process
     In total, this corresponds to 14.040 GByte for all processes
     (peak memory usage of 78.603 MByte per process so far)
 Determination of the impedances and powers
    0%  100%  
 Calculate the far field
   (FarField1)
   Using standard far field calculations
   Computation of the far field values in the frequency domain
  100%  
   Exporting of the far field values
  100%  
 --- Direction of incidence loop: 2 of 3
 Ray launching/tracing for RL-GO (all sources)
    0%    2%    3%    4%    5%    6%    7%    8%    9%   10%   11%   12%   13%   14%   15%   16%   17%   18%   19%   20%   21%   22%   23%   24%   25%   26%   27%   28%   29%   30%   31%   32%   33%   34%   35%   36%   37%   38%   39%   40%   41%   42%   43%   44%   45%   46%   47%   48%   49%   50%   51%   52%   53%   54%   55%   56%   57%   58%   59%   60%   61%   62%   63%   64%   65%   66%   67%   68%   69%   70%   71%   72%   73%   74%   75%   76%   77%   78%   79%   80%   81%   82%   83%   84%   85%   86%   87%   88%   89%   90%   91%   92%   93%   94%   95%   96%   97%  100%  
 Determination of the impedances and powers
    0%  100%  
 Calculate the far field
   (FarField1)
   Using standard far field calculations
   Computation of the far field values in the frequency domain
  100%  
   Exporting of the far field values
  100%  
 --- Direction of incidence loop: 3 of 3
 Ray launching/tracing for RL-GO (all sources)
    0%    1%    2%    3%    4%    5%    6%    7%    8%    9%   10%   11%   12%   13%   14%   15%   16%   17%   18%   19%   20%   21%   22%   23%   24%   25%   26%   27%   28%   29%   30%   31%   32%   33%   34%   35%   36%   37%   38%   39%   40%   41%   42%   43%   44%   45%   46%   47%   48%   49%   50%   51%   52%   53%   54%   55%   56%   57%   58%   59%   60%   61%   62%   63%   64%   65%   66%   67%   68%   69%   70%   71%   72%   73%   74%   75%   76%   77%   78%   79%   80%   81%   82%   83%   84%   85%   86%   87%   88%   89%   90%   91%   92%   93%   94%   95%   96%   97%   98%   99%  100%  100%  
 Determination of the impedances and powers
    0%  100%  
 Calculate the far field
   (FarField1)
   Using standard far field calculations
   Computation of the far field values in the frequency domain
  100%  
   Exporting of the far field values
  100%  
 --- Processing frequency 2 of 150 ( 9.30134E+09 Hz)
 --- Direction of incidence loop: 1 of 3
 Checking the geometrical input data (frequency dependent)
 Ray launching/tracing for RL-GO (all sources)
    0%    1%    2%    3%    4%    5%    6%    7%    8%    9%   10%   11%   12%   13%   14%   15%   16%   17%   18%   19%   20%   21%   22%   23%   24%   25%   26%   27%   28%   29%   30%   31%   32%   33%   34%   35%   36%   37%   38%   39%   40%   41%   42%   43%   44%   45%   46%   47%   48%   49%   50%   51%   52%   53%   54%   55%   56%   57%   58%   59%   60%   61%   62%   63%   64%   65%   66%   67%   68%   69%   70%   71%   72%   73%   74%   75%   76%   77%   78%   79%   80%   81%   82%   83%   84%   85%   86%   87%   88%   89%   90%   91%   92%   93%   94%   95%   96%   97%   98%   99%  100%  100%  
 Determination of the impedances and powers
    0%  100%  
 Calculate the far field
   (FarField1)
   Using standard far field calculations
   Computation of the far field values in the frequency domain
  100%  
   Exporting of the far field values
  100%  
 --- Direction of incidence loop: 2 of 3
 Ray launching/tracing for RL-GO (all sources)
    2%    3%    4%    5%    6%    7%    8%    9%   10%   11%   12%   13%   14%   15%   16%   17%   18%   19%   20%   21%   22%   23%   24%   25%   26%   27%   28%   29%   30%   31%   32%   33%   34%   35%   36%   37%   38%   39%   40%   41%   42%   43%   44%   45%   46%   47%   48%   49%   50%   51%   52%   53%   54%   55%   56%   57%   58%   59%   60%   61%   62%   63%   64%   65%   66%   67%   68%   69%   70%   71%   72%   73%   74%   75%   76%   77%   78%   79%   80%   81%   82%   83%   84%   85%   86%   87%   88%   89%   90%   91%   92%   93%   94%   95%   96%   97%  100%  
 Determination of the impedances and powers
    0%  100%  
 Calculate the far field
   (FarField1)
   Using standard far field calculations
   Computation of the far field values in the frequency domain
  100%  
   Exporting of the far field values
  100%  
 --- Direction of incidence loop: 3 of 3
 Ray launching/tracing for RL-GO (all sources)
    0%    1%    2%    3%    4%    5%    6%    7%    8%    9%   10%   11%   12%   13%   14%   15%   16%   17%   18%   19%   20%   21%   22%   23%   24%   25%   26%   27%   28%   29%   30%   31%   32%   33%   34%   35%   36%   37%   38%   39%   40%   41%   42%   43%   44%   45%   46%   47%   48%   49%   50%   51%   52%   53%   54%   55%   56%   57%   58%   59%   60%   61%   62%   63%   64%   65%   66%   67%   68%   69%   70%   71%   72%   73%   74%   75%   76%   77%   78%   79%   80%   81%   82%   83%   84%   85%   86%   87%   88%   89%   90%   91%   92%   93%   94%   95%   96%   97%   98%   99%  100%  100%  
 Determination of the impedances and powers
    0%  100%  
 Calculate the far field
   (FarField1)
   Using standard far field calculations
   Computation of the far field values in the frequency domain
  100%  
   Exporting of the far field values
  100%  
 --- Processing frequency 3 of 150 ( 9.30268E+09 Hz)
 --- Direction of incidence loop: 1 of 3
 Checking the geometrical input data (frequency dependent)
 Ray launching/tracing for RL-GO (all sources)
    0%    1%    2%    3%    4%    5%    6%    7%    8%    9%   10%   11%   12%   13%   14%   15%   16%   17%   18%   19%   20%   21%   22%   23%   24%   25%   26%   27%   28%   29%   30%   31%   32%   33%   34%   35%   36%   37%   38%   39%   40%   41%   42%   43%   44%   45%   46%   47%   48%   49%   50%   51%   52%   53%   54%   55%   56%   57%   58%   59%   60%   61%   62%   63%   64%   65%   66%   67%   68%   69%   70%   71%   72%   73%   74%   75%   76%   77%   78%   79%   80%   81%   82%   83%   84%   85%   86%   87%   88%   89%   90%   91%   92%   93%   94%   95%   96%   97%   98%   99%  100%  100%  
 Determination of the impedances and powers
    0%  100%  
 Calculate the far field
   (FarField1)
   Using standard far field calculations
   Computation of the far field values in the frequency domain
  100%  
   Exporting of the far field values
  100%  
 --- Direction of incidence loop: 2 of 3
 Ray launching/tracing for RL-GO (all sources)
    2%    3%    4%    5%    6%    7%    8%    9%   10%   11%   12%   13%   14%   15%   16%   17%   18%   19%   20%   21%   22%   23%   24%   25%   26%   27%   28%   29%   30%   31%   32%   33%   34%   35%   36%   37%   38%   39%   40%   41%   42%   43%   44%   45%   46%   47%   48%   49%   50%   51%   52%   53%   54%   55%   56%   57%   58%   59%   60%   61%   62%   63%   64%   65%   66%   67%   68%   69%   70%   71%   72%   73%   74%   75%   76%   77%   78%   79%   80%   81%   82%   83%   84%   85%   86%   87%   88%   89%   90%   91%   92%   93%   94%   95%   96%   97%  100%  
 Determination of the impedances and powers
    0%  100%  
 Calculate the far field
   (FarField1)
   Using standard far field calculations
   Computation of the far field values in the frequency domain
  100%  
   Exporting of the far field values
  100%  
 --- Direction of incidence loop: 3 of 3
 Ray launching/tracing for RL-GO (all sources)
    0%    1%    2%    3%    4%    5%    6%    7%    8%    9%   10%   11%   12%   13%   14%   15%   16%   17%   18%   19%   20%   21%   22%   23%   24%   25%   26%   27%   28%   29%   30%   31%   32%   33%   34%   35%   36%   37%   38%   39%   40%   41%   42%   43%   44%   45%   46%   47%   48%   49%   50%   51%   52%   53%   54%   55%   56%   57%   58%   59%   60%   61%   62%   63%   64%   65%   66%   67%   68%   69%   70%   71%   72%   73%   74%   75%   76%   77%   78%   79%   80%   81%   82%   83%   84%   85%   86%   87%   88%   89%   90%   91%   92%   93%   94%   95%   96%   97%   98%   99%  100%  100%  
 Determination of the impedances and powers
    0%  100%  
 Calculate the far field
   (FarField1)
   Using standard far field calculations
   Computation of the far field values in the frequency domain
  100%  
   Exporting of the far field values
  100%  
 --- Processing frequency 4 of 150 ( 9.30403E+09 Hz)
 --- Direction of incidence loop: 1 of 3
 Checking the geometrical input data (frequency dependent)
 Ray launching/tracing for RL-GO (all sources)
    0%    1%    2%    3%    4%    5%    6%    7%    8%    9%   10%   11%   12%   13%   14%   15%   16%   17%   18%   19%   20%   21%   22%   23%   24%   25%   26%   27%   28%   29%   30%   31%   32%   33%   34%   35%   36%   37%   38%   39%   40%   41%   42%   43%   44%   45%   46%   47%   48%   49%   50%   51%   52%   53%   54%   55%   56%   57%   58%   59%   60%   61%   62%   63%   64%   65%   66%   67%   68%   69%   70%   71%   72%   73%   74%   75%   76%   77%   78%   79%   80%   81%   82%   83%   84%   85%   86%   87%   88%   89%   90%   91%   92%   93%   94%   95%   96%   97%   98%   99%  100%  100%  
 Determination of the impedances and powers
    0%  100%  
 Calculate the far field
   (FarField1)
   Using standard far field calculations
   Computation of the far field values in the frequency domain
  100%  
   Exporting of the far field values
  100%  
 --- Direction of incidence loop: 2 of 3
 Ray launching/tracing for RL-GO (all sources)
    2%    3%    4%    5%    6%    7%    8%    9%   10%   11%   12%   13%   14%   15%   16%   17%   18%   19%   20%   21%   22%   23%   24%   25%   26%   27%   28%   29%   30%   31%   32%   33%   34%   35%   36%   37%   38%   39%   40%   41%   42%   43%   44%   45%   46%   47%   48%   49%   50%   51%   52%   53%   54%   55%   56%   57%   58%   59%   60%   61%   62%   63%   64%   65%   66%   67%   68%   69%   70%   71%   72%   73%   74%   75%   76%   77%   78%   79%   80%   81%   82%   83%   84%   85%   86%   87%   88%   89%   90%   91%   92%   93%   94%   95%   96%   97%  100%  
 Determination of the impedances and powers
    0%  100%  
 Calculate the far field
   (FarField1)
   Using standard far field calculations
   Computation of the far field values in the frequency domain
  100%  
   Exporting of the far field values
  100%  
 --- Direction of incidence loop: 3 of 3
 Ray launching/tracing for RL-GO (all sources)
    0%    1%    2%    3%    4%    5%    6%    7%    8%    9%   10%   11%   12%   13%   14%   15%   16%   17%   18%   19%   20%   21%   22%   23%   24%   25%   26%   27%   28%   29%   30%   31%   32%   33%   34%   35%   36%   37%   38%   39%   40%   41%   42%   43%   44%   45%   46%   47%   48%   49%   50%   51%   52%   53%   54%   55%   56%   57%   58%   59%   60%   61%   62%   63%   64%   65%   66%   67%   68%   69%   70%   71%   72%   73%   74%   75%   76%   77%   78%   79%   80%   81%   82%   83%   84%   85%   86%   87%   88%   89%   90%   91%   92%   93%   94%   95%   96%   97%   98%   99%  100%  100%  
 Determination of the impedances and powers
    0%  100%  
 Calculate the far field
   (FarField1)
   Using standard far field calculations
   Computation of the far field values in the frequency domain
  100%  
   Exporting of the far field values
  100%  
 --- Processing frequency 5 of 150 ( 9.30537E+09 Hz)
 --- Direction of incidence loop: 1 of 3
 Checking the geometrical input data (frequency dependent)
 Ray launching/tracing for RL-GO (all sources)
    0%    1%    2%    3%    4%    5%    6%    7%    8%    9%   10%   11%   12%   13%   14%   15%   16%   17%   18%   19%   20%   21%   22%   23%   24%   25%   26%   27%   28%   29%   30%   31%   32%   33%   34%   35%   36%   37%   38%   39%   40%   41%   42%   43%   44%   45%   46%   47%   48%   49%   50%   51%   52%   53%   54%   55%   56%   57%   58%   59%   60%   61%   62%   63%   64%   65%   66%   67%   68%   69%   70%   71%   72%   73%   74%   75%   76%   77%   78%   79%   80%   81%   82%   83%   84%   85%   86%   87%   88%   89%   90%   91%   92%   93%   94%   95%   96%   97%   98%   99%  100%  100%  
 Determination of the impedances and powers
    0%  100%  
 Calculate the far field
   (FarField1)
   Using standard far field calculations
   Computation of the far field values in the frequency domain
  100%  
   Exporting of the far field values
  100%  
 --- Direction of incidence loop: 2 of 3
 Ray launching/tracing for RL-GO (all sources)
    2%    3%    4%    5%    6%    7%    8%    9%   10%   11%   12%   13%   14%   15%   16%   17%   18%   19%   20%   21%   22%   23%   24%   25%   26%   27%   28%   29%   30%   31%   32%   33%   34%   35%   36%   37%   38%   39%   40%   41%   42%   43%   44%   45%   46%   47%   48%   49%   50%   51%   52%   53%   54%   55%   56%   57%   58%   59%   60%   61%   62%   63%   64%   65%   66%   67%   68%   69%   70%   71%   72%   73%   74%   75%   76%   77%   78%   79%   80%   81%   82%   83%   84%   85%   86%   87%   88%   89%   90%   91%   92%   93%   94%   95%   96%   97%  100%  
 Determination of the impedances and powers
    0%  100%  
 Calculate the far field
   (FarField1)
   Using standard far field calculations
   Computation of the far field values in the frequency domain
  100%  
   Exporting of the far field values
  100%  
 --- Direction of incidence loop: 3 of 3
 Ray launching/tracing for RL-GO (all sources)
    0%    1%    2%    3%    4%    5%    6%    7%    8%    9%   10%   11%   12%   13%   14%   15%   16%   17%   18%   19%   20%   21%   22%   23%   24%   25%   26%   27%   28%   29%   30%   31%   32%   33%   34%   35%   36%   37%   38%   39%   40%   41%   42%   43%   44%   45%   46%   47%   48%   49%   50%   51%   52%   53%   54%   55%   56%   57%   58%   59%   60%   61%   62%   63%   64%   65%   66%   67%   68%   69%   70%   71%   72%   73%   74%   75%   76%   77%   78%   79%   80%   81%   82%   83%   84%   85%   86%   87%   88%   89%   90%   91%   92%   93%   94%   95%   96%   97%   98%   99%  100%  100%  
 Determination of the impedances and powers
    0%  100%  
 Calculate the far field
   (FarField1)
   Using standard far field calculations
   Computation of the far field values in the frequency domain
  100%  
   Exporting of the far field values
  100%  
 --- Processing frequency 6 of 150 ( 9.30671E+09 Hz)
 --- Direction of incidence loop: 1 of 3
 Checking the geometrical input data (frequency dependent)
 Ray launching/tracing for RL-GO (all sources)
    0%    1%    2%    3%    4%    5%    6%    7%    8%    9%   10%   11%   12%   13%   14%   15%   16%   17%   18%   19%   20%   21%   22%   23%   24%   25%   26%   27%   28%   29%   30%   31%   32%   33%   34%   35%   36%   37%   38%   39%   40%   41%   42%   43%   44%   45%   46%   47%   48%   49%   50%   51%   52%   53%   54%   55%   56%   57%   58%   59%   60%   61%   62%   63%   64%   65%   66%   67%   68%   69%   70%   71%   72%   73%   74%   75%   76%   77%   78%   79%   80%   81%   82%   83%   84%   85%   86%   87%   88%   89%   90%   91%   92%   93%   94%   95%   96%   97%   98%   99%  100%  100%  
 Determination of the impedances and powers
    0%  100%  
 Calculate the far field
   (FarField1)
   Using standard far field calculations
   Computation of the far field values in the frequency domain
  100%  
   Exporting of the far field values
  100%  
 --- Direction of incidence loop: 2 of 3
 Ray launching/tracing for RL-GO (all sources)
    2%    3%    4%    5%    6%    7%    8%    9%   10%   11%   12%   13%   14%   15%   16%   17%   18%   19%   20%   21%   22%   23%   24%   25%   26%   27%   28%   29%   30%   31%   32%   33%   34%   35%   36%   37%   38%   39%   40%   41%   42%   43%   44%   45%   46%   47%   48%   49%   50%   51%   52%   53%   54%   55%   56%   57%   58%   59%   60%   61%   62%   63%   64%   65%   66%   67%   68%   69%   70%   71%   72%   73%   74%   75%   76%   77%   78%   79%   80%   81%   82%   83%   84%   85%   86%   87%   88%   89%   90%   91%   92%   93%   94%   95%   96%   97%  100%  
 Determination of the impedances and powers
    0%  100%  
 Calculate the far field
   (FarField1)
   Using standard far field calculations
   Computation of the far field values in the frequency domain
  100%  
   Exporting of the far field values
  100%  
 --- Direction of incidence loop: 3 of 3
 Ray launching/tracing for RL-GO (all sources)
    0%    1%    2%    3%    4%    5%    6%    7%    8%    9%   10%   11%   12%   13%   14%   15%   16%   17%   18%   19%   20%   21%   22%   23%   24%   25%   26%   27%   28%   29%   30%   31%   32%   33%   34%   35%   36%   37%   38%   39%   40%   41%   42%   43%   44%   45%   46%   47%   48%   49%   50%   51%   52%   53%   54%   55%   56%   57%   58%   59%   60%   61%   62%   63%   64%   65%   66%   67%   68%   69%   70%   71%   72%   73%   74%   75%   76%   77%   78%   79%   80%   81%   82%   83%   84%   85%   86%   87%   88%   89%   90%   91%   92%   93%   94%   95%   96%   97%   98%   99%  100%  100%  
 Determination of the impedances and powers
    0%  100%  
 Calculate the far field
   (FarField1)
   Using standard far field calculations
   Computation of the far field values in the frequency domain
  100%  
   Exporting of the far field values
  100%  
 --- Processing frequency 7 of 150 ( 9.30805E+09 Hz)
 --- Direction of incidence loop: 1 of 3
 Checking the geometrical input data (frequency dependent)
 Ray launching/tracing for RL-GO (all sources)
    0%    1%    2%    3%    4%    5%    6%    7%    8%    9%   10%   11%   12%   13%   14%   15%   16%   17%   18%   19%   20%   21%   22%   23%   24%   25%   26%   27%   28%   29%   30%   31%   32%   33%   34%   35%   36%   37%   38%   39%   40%   41%   42%   43%   44%   45%   46%   47%   48%   49%   50%   51%   52%   53%   54%   55%   56%   57%   58%   59%   60%   61%   62%   63%   64%   65%   66%   67%   68%   69%   70%   71%   72%   73%   74%   75%   76%   77%   78%   79%   80%   81%   82%   83%   84%   85%   86%   87%   88%   89%   90%   91%   92%   93%   94%   95%   96%   97%   98%   99%  100%  100%  
 Determination of the impedances and powers
    0%  100%  
 Calculate the far field
   (FarField1)
   Using standard far field calculations
   Computation of the far field values in the frequency domain
  100%  
   Exporting of the far field values
  100%  
 --- Direction of incidence loop: 2 of 3
 Ray launching/tracing for RL-GO (all sources)
    2%    3%    4%    5%    6%    7%    8%    9%   10%   11%   12%   13%   14%   15%   16%   17%   18%   19%   20%   21%   22%   23%   24%   25%   26%   27%   28%   29%   30%   31%   32%   33%   34%   35%   36%   37%   38%   39%   40%   41%   42%   43%   44%   45%   46%   47%   48%   49%   50%   51%   52%   53%   54%   55%   56%   57%   58%   59%   60%   61%   62%   63%   64%   65%   66%   67%   68%   69%   70%   71%   72%   73%   74%   75%   76%   77%   78%   79%   80%   81%   82%   83%   84%   85%   86%   87%   88%   89%   90%   91%   92%   93%   94%   95%   96%   97%  100%  
 Determination of the impedances and powers
    0%  100%  
 Calculate the far field
   (FarField1)
   Using standard far field calculations
   Computation of the far field values in the frequency domain
  100%  
   Exporting of the far field values
  100%  
 --- Direction of incidence loop: 3 of 3
 Ray launching/tracing for RL-GO (all sources)
    0%    1%    2%    3%    4%    5%    6%    7%    8%    9%   10%   11%   12%   13%   14%   15%   16%   17%   18%   19%   20%   21%   22%   23%   24%   25%   26%   27%   28%   29%   30%   31%   32%   33%   34%   35%   36%   37%   38%   39%   40%   41%   42%   43%   44%   45%   46%   47%   48%   49%   50%   51%   52%   53%   54%   55%   56%   57%   58%   59%   60%   61%   62%   63%   64%   65%   66%   67%   68%   69%   70%   71%   72%   73%   74%   75%   76%   77%   78%   79%   80%   81%   82%   83%   84%   85%   86%   87%   88%   89%   90%   91%   92%   93%   94%   95%   96%   97%   98%   99%  100%  100%  
 Determination of the impedances and powers
    0%  100%  
 Calculate the far field
   (FarField1)
   Using standard far field calculations
   Computation of the far field values in the frequency domain
  100%  
   Exporting of the far field values
  100%  
 --- Processing frequency 8 of 150 ( 9.30940E+09 Hz)
 --- Direction of incidence loop: 1 of 3
 Checking the geometrical input data (frequency dependent)
 Ray launching/tracing for RL-GO (all sources)
    0%    1%    2%    3%    4%    5%    6%    7%    8%    9%   10%   11%   12%   13%   14%   15%   16%   17%   18%   19%   20%   21%   22%   23%   24%   25%   26%   27%   28%   29%   30%   31%   32%   33%   34%   35%   36%   37%   38%   39%   40%   41%   42%   43%   44%   45%   46%   47%   48%   49%   50%   51%   52%   53%   54%   55%   56%   57%   58%   59%   60%   61%   62%   63%   64%   65%   66%   67%   68%   69%   70%   71%   72%   73%   74%   75%   76%   77%   78%   79%   80%   81%   82%   83%   84%   85%   86%   87%   88%   89%   90%   91%   92%   93%   94%   95%   96%   97%   98%   99%  100%  100%  
 Determination of the impedances and powers
    0%  100%  
 Calculate the far field
   (FarField1)
   Using standard far field calculations
   Computation of the far field values in the frequency domain
  100%  
   Exporting of the far field values
  100%  
 --- Direction of incidence loop: 2 of 3
 Ray launching/tracing for RL-GO (all sources)
    2%    3%    4%    5%    6%    7%    8%    9%   10%   11%   12%   13%   14%   15%   16%   17%   18%   19%   20%   21%   22%   23%   24%   25%   26%   27%   28%   29%   30%   31%   32%   33%   34%   35%   36%   37%   38%   39%   40%   41%   42%   43%   44%   45%   46%   47%   48%   49%   50%   51%   52%   53%   54%   55%   56%   57%   58%   59%   60%   61%   62%   63%   64%   65%   66%   67%   68%   69%   70%   71%   72%   73%   74%   75%   76%   77%   78%   79%   80%   81%   82%   83%   84%   85%   86%   87%   88%   89%   90%   91%   92%   93%   94%   95%   96%   97%  100%  
 Determination of the impedances and powers
    0%  100%  
 Calculate the far field
   (FarField1)
   Using standard far field calculations
   Computation of the far field values in the frequency domain
  100%  
   Exporting of the far field values
  100%  
 --- Direction of incidence loop: 3 of 3
 Ray launching/tracing for RL-GO (all sources)
    0%    1%    2%    3%    4%    5%    6%    7%    8%    9%   10%   11%   12%   13%   14%   15%   16%   17%   18%   19%   20%   21%   22%   23%   24%   25%   26%   27%   28%   29%   30%   31%   32%   33%   34%   35%   36%   37%   38%   39%   40%   41%   42%   43%   44%   45%   46%   47%   48%   49%   50%   51%   52%   53%   54%   55%   56%   57%   58%   59%   60%   61%   62%   63%   64%   65%   66%   67%   68%   69%   70%   71%   72%   73%   74%   75%   76%   77%   78%   79%   80%   81%   82%   83%   84%   85%   86%   87%   88%   89%   90%   91%   92%   93%   94%   95%   96%   97%   98%   99%  100%  100%  
 Determination of the impedances and powers
    0%  100%  
 Calculate the far field
   (FarField1)
   Using standard far field calculations
   Computation of the far field values in the frequency domain
  100%  
   Exporting of the far field values
  100%  
 --- Processing frequency 9 of 150 ( 9.31074E+09 Hz)
 --- Direction of incidence loop: 1 of 3
 Checking the geometrical input data (frequency dependent)
 Ray launching/tracing for RL-GO (all sources)
    0%    1%    2%    3%    4%    5%    6%    7%    8%    9%   10%   11%   12%   13%   14%   15%   16%   17%   18%   19%   20%   21%   22%   23%   24%   25%   26%   27%   28%   29%   30%   31%   32%   33%   34%   35%   36%   37%   38%   39%   40%   41%   42%   43%   44%   45%   46%   47%   48%   49%   50%   51%   52%   53%   54%   55%   56%   57%   58%   59%   60%   61%   62%   63%   64%   65%   66%   67%   68%   69%   70%   71%   72%   73%   74%   75%   76%   77%   78%   79%   80%   81%   82%   83%   84%   85%   86%   87%   88%   89%   90%   91%   92%   93%   94%   95%   96%   97%   98%   99%  100%  100%  
 Determination of the impedances and powers
    0%  100%  
 Calculate the far field
   (FarField1)
   Using standard far field calculations
   Computation of the far field values in the frequency domain
  100%  
   Exporting of the far field values
  100%  
 --- Direction of incidence loop: 2 of 3
 Ray launching/tracing for RL-GO (all sources)
    2%    3%    4%    5%    6%    7%    8%    9%   10%   11%   12%   13%   14%   15%   16%   17%   18%   19%   20%   21%   22%   23%   24%   25%   26%   27%   28%   29%   30%   31%   32%   33%   34%   35%   36%   37%   38%   39%   40%   41%   42%   43%   44%   45%   46%   47%   48%   49%   50%   51%   52%   53%   54%   55%   56%   57%   58%   59%   60%   61%   62%   63%   64%   65%   66%   67%   68%   69%   70%   71%   72%   73%   74%   75%   76%   77%   78%   79%   80%   81%   82%   83%   84%   85%   86%   87%   88%   89%   90%   91%   92%   93%   94%   95%   96%   97%  100%  
 Determination of the impedances and powers
    0%  100%  
 Calculate the far field
   (FarField1)
   Using standard far field calculations
   Computation of the far field values in the frequency domain
  100%  
   Exporting of the far field values
  100%  
 --- Direction of incidence loop: 3 of 3
 Ray launching/tracing for RL-GO (all sources)
    0%    1%    2%    3%    4%    5%    6%    7%    8%    9%   10%   11%   12%   13%   14%   15%   16%   17%   18%   19%   20%   21%   22%   23%   24%   25%   26%   27%   28%   29%   30%   31%   32%   33%   34%   35%   36%   37%   38%   39%   40%   41%   42%   43%   44%   45%   46%   47%   48%   49%   50%   51%   52%   53%   54%   55%   56%   57%   58%   59%   60%   61%   62%   63%   64%   65%   66%   67%   68%   69%   70%   71%   72%   73%   74%   75%   76%   77%   78%   79%   80%   81%   82%   83%   84%   85%   86%   87%   88%   89%   90%   91%   92%   93%   94%   95%   96%   97%   98%   99%  100%  100%  
 Determination of the impedances and powers
    0%  100%  
 Calculate the far field
   (FarField1)
   Using standard far field calculations
   Computation of the far field values in the frequency domain
  100%  
   Exporting of the far field values
  100%  
 --- Processing frequency 10 of 150 ( 9.31208E+09 Hz)
 --- Direction of incidence loop: 1 of 3
 Checking the geometrical input data (frequency dependent)
 Ray launching/tracing for RL-GO (all sources)
    0%    1%    2%    3%    4%    5%    6%    7%    8%    9%   10%   11%   12%   13%   14%   15%   16%   17%   18%   19%   20%   21%   22%   23%   24%   25%   26%   27%   28%   29%   30%   31%   32%   33%   34%   35%   36%   37%   38%   39%   40%   41%   42%   43%   44%   45%   46%   47%   48%   49%   50%   51%   52%   53%   54%   55%   56%   57%   58%   59%   60%   61%   62%   63%   64%   65%   66%   67%   68%   69%   70%   71%   72%   73%   74%   75%   76%   77%   78%   79%   80%   81%   82%   83%   84%   85%   86%   87%   88%   89%   90%   91%   92%   93%   94%   95%   96%   97%   98%   99%  100%  100%  
 Determination of the impedances and powers
    0%  100%  
 Calculate the far field
   (FarField1)
   Using standard far field calculations
   Computation of the far field values in the frequency domain
  100%  
   Exporting of the far field values
  100%  
 --- Direction of incidence loop: 2 of 3
 Ray launching/tracing for RL-GO (all sources)
    2%    3%    4%    5%    6%    7%    8%    9%   10%   11%   12%   13%   14%   15%   16%   17%   18%   19%   20%   21%   22%   23%   24%   25%   26%   27%   28%   29%   30%   31%   32%   33%   34%   35%   36%   37%   38%   39%   40%   41%   42%   43%   44%   45%   46%   47%   48%   49%   50%   51%   52%   53%   54%   55%   56%   57%   58%   59%   60%   61%   62%   63%   64%   65%   66%   67%   68%   69%   70%   71%   72%   73%   74%   75%   76%   77%   78%   79%   80%   81%   82%   83%   84%   85%   86%   87%   88%   89%   90%   91%   92%   93%   94%   95%   96%   97%  100%  
 Determination of the impedances and powers
    0%  100%  
 Calculate the far field
   (FarField1)
   Using standard far field calculations
   Computation of the far field values in the frequency domain
  100%  
   Exporting of the far field values
  100%  
 --- Direction of incidence loop: 3 of 3
 Ray launching/tracing for RL-GO (all sources)
    0%    1%    2%    3%    4%    5%    6%    7%    8%    9%   10%   11%   12%   13%   14%   15%   16%   17%   18%   19%   20%   21%   22%   23%   24%   25%   26%   27%   28%   29%   30%   31%   32%   33%   34%   35%   36%   37%   38%   39%   40%   41%   42%   43%   44%   45%   46%   47%   48%   49%   50%   51%   52%   53%   54%   55%   56%   57%   58%   59%   60%   61%   62%   63%   64%   65%   66%   67%   68%   69%   70%   71%   72%   73%   74%   75%   76%   77%   78%   79%   80%   81%   82%   83%   84%   85%   86%   87%   88%   89%   90%   91%   92%   93%   94%   95%   96%   97%   98%   99%  100%  100%  
 Determination of the impedances and powers
    0%  100%  
 Calculate the far field
   (FarField1)
   Using standard far field calculations
   Computation of the far field values in the frequency domain
  100%  
   Exporting of the far field values
  100%  
 --- Processing frequency 11 of 150 ( 9.31342E+09 Hz)
 --- Direction of incidence loop: 1 of 3
 Checking the geometrical input data (frequency dependent)
 Ray launching/tracing for RL-GO (all sources)
    0%    1%    2%    3%    4%    5%    6%    7%    8%    9%   10%   11%   12%   13%   14%   15%   16%   17%   18%   19%   20%   21%   22%   23%   24%   25%   26%   27%   28%   29%   30%   31%   32%   33%   34%   35%   36%   37%   38%   39%   40%   41%   42%   43%   44%   45%   46%   47%   48%   49%   50%   51%   52%   53%   54%   55%   56%   57%   58%   59%   60%   61%   62%   63%   64%   65%   66%   67%   68%   69%   70%   71%   72%   73%   74%   75%   76%   77%   78%   79%   80%   81%   82%   83%   84%   85%   86%   87%   88%   89%   90%   91%   92%   93%   94%   95%   96%   97%   98%   99%  100%  100%  
 Determination of the impedances and powers
    0%  100%  
 Calculate the far field
   (FarField1)
   Using standard far field calculations
   Computation of the far field values in the frequency domain
  100%  
   Exporting of the far field values
  100%  
 --- Direction of incidence loop: 2 of 3
 Ray launching/tracing for RL-GO (all sources)
[...]
 Determination of the impedances and powers
    0%  100%  
 Calculate the far field
   (FarField1)
   Using standard far field calculations
   Computation of the far field values in the frequency domain
  100%  
   Exporting of the far field values
  100%  
 --- Processing frequency 147 of 150 ( 9.49597E+09 Hz)
 --- Direction of incidence loop: 1 of 3
 Checking the geometrical input data (frequency dependent)
 Ray launching/tracing for RL-GO (all sources)
    0%    1%    2%    3%    4%    5%    6%    7%    8%    9%   10%   11%   12%   13%   14%   15%   16%   17%   18%   19%   20%   21%   22%   23%   24%   25%   26%   27%   28%   29%   30%   31%   32%   33%   34%   35%   36%   37%   38%   39%   40%   41%   42%   43%   44%   45%   46%   47%   48%   49%   50%   51%   52%   53%   54%   55%   56%   57%   58%   59%   60%   61%   62%   63%   64%   65%   66%   67%   68%   69%   70%   71%   72%   73%   74%   75%   76%   77%   78%   79%   80%   81%   82%   83%   84%   85%   86%   87%   88%   89%   90%   91%   92%   93%   94%   95%   96%   97%   98%   99%  100%  100%  
 Determination of the impedances and powers
    0%  100%  
 Calculate the far field
   (FarField1)
   Using standard far field calculations
   Computation of the far field values in the frequency domain
  100%  
   Exporting of the far field values
  100%  
 --- Direction of incidence loop: 2 of 3
 Ray launching/tracing for RL-GO (all sources)
    3%    4%    5%    6%    7%    8%    9%   10%   11%   12%   13%   14%   15%   16%   17%   18%   19%   20%   21%   22%   23%   24%   25%   26%   27%   28%   29%   30%   31%   32%   33%   34%   35%   36%   37%   38%   39%   40%   41%   42%   43%   44%   45%   46%   47%   48%   49%   50%   51%   52%   53%   54%   55%   56%   57%   58%   59%   60%   61%   62%   63%   64%   65%   66%   67%   68%   69%   70%   71%   72%   73%   74%   75%   76%   77%   78%   79%   80%   81%   82%   83%   84%   85%   86%   87%   88%   89%   90%   91%   92%   93%   94%   95%   96%   97%  100%  
 Determination of the impedances and powers
    0%  100%  
 Calculate the far field
   (FarField1)
   Using standard far field calculations
   Computation of the far field values in the frequency domain
  100%  
   Exporting of the far field values
  100%  
 --- Direction of incidence loop: 3 of 3
 Ray launching/tracing for RL-GO (all sources)
    0%    1%    2%    3%    4%    5%    6%    7%    8%    9%   10%   11%   12%   13%   14%   15%   16%   17%   18%   19%   20%   21%   22%   23%   24%   25%   26%   27%   28%   29%   30%   31%   32%   33%   34%   35%   36%   37%   38%   39%   40%   41%   42%   43%   44%   45%   46%   47%   48%   49%   50%   51%   52%   53%   54%   55%   56%   57%   58%   59%   60%   61%   62%   63%   64%   65%   66%   67%   68%   69%   70%   71%   72%   73%   74%   75%   76%   77%   78%   79%   80%   81%   82%   83%   84%   85%   86%   87%   88%   89%   90%   91%   92%   93%   94%   95%   96%   97%   98%   99%  100%  100%  
 Determination of the impedances and powers
    0%  100%  
 Calculate the far field
   (FarField1)
   Using standard far field calculations
   Computation of the far field values in the frequency domain
  100%  
   Exporting of the far field values
  100%  
 --- Processing frequency 148 of 150 ( 9.49732E+09 Hz)
 --- Direction of incidence loop: 1 of 3
 Checking the geometrical input data (frequency dependent)
 Ray launching/tracing for RL-GO (all sources)
    0%    1%    2%    3%    4%    5%    6%    7%    8%    9%   10%   11%   12%   13%   14%   15%   16%   17%   18%   19%   20%   21%   22%   23%   24%   25%   26%   27%   28%   29%   30%   31%   32%   33%   34%   35%   36%   37%   38%   39%   40%   41%   42%   43%   44%   45%   46%   47%   48%   49%   50%   51%   52%   53%   54%   55%   56%   57%   58%   59%   60%   61%   62%   63%   64%   65%   66%   67%   68%   69%   70%   71%   72%   73%   74%   75%   76%   77%   78%   79%   80%   81%   82%   83%   84%   85%   86%   87%   88%   89%   90%   91%   92%   93%   94%   95%   96%   97%   98%   99%  100%  100%  
 Determination of the impedances and powers
    0%  100%  
 Calculate the far field
   (FarField1)
   Using standard far field calculations
   Computation of the far field values in the frequency domain
  100%  
   Exporting of the far field values
  100%  
 --- Direction of incidence loop: 2 of 3
 Ray launching/tracing for RL-GO (all sources)
    2%    3%    4%    5%    6%    7%    8%    9%   10%   11%   12%   13%   14%   15%   16%   17%   18%   19%   20%   21%   22%   23%   24%   25%   26%   27%   28%   29%   30%   31%   32%   33%   34%   35%   36%   37%   38%   39%   40%   41%   42%   43%   44%   45%   46%   47%   48%   49%   50%   51%   52%   53%   54%   55%   56%   57%   58%   59%   60%   61%   62%   63%   64%   65%   66%   67%   68%   69%   70%   71%   72%   73%   74%   75%   76%   77%   78%   79%   80%   81%   82%   83%   84%   85%   86%   87%   88%   89%   90%   91%   92%   93%   94%   95%   96%   98%  100%  
 Determination of the impedances and powers
    0%  100%  
 Calculate the far field
   (FarField1)
   Using standard far field calculations
   Computation of the far field values in the frequency domain
  100%  
   Exporting of the far field values
  100%  
 --- Direction of incidence loop: 3 of 3
 Ray launching/tracing for RL-GO (all sources)
    0%    1%    2%    3%    4%    5%    6%    7%    8%    9%   10%   11%   12%   13%   14%   15%   16%   17%   18%   19%   20%   21%   22%   23%   24%   25%   26%   27%   28%   29%   30%   31%   32%   33%   34%   35%   36%   37%   38%   39%   40%   41%   42%   43%   44%   45%   46%   47%   48%   49%   50%   51%   52%   53%   54%   55%   56%   57%   58%   59%   60%   61%   62%   63%   64%   65%   66%   67%   68%   69%   70%   71%   72%   73%   74%   75%   76%   77%   78%   79%   80%   81%   82%   83%   84%   85%   86%   87%   88%   89%   90%   91%   92%   93%   94%   95%   96%   97%   98%   99%  100%  100%  
 Determination of the impedances and powers
    0%  100%  
 Calculate the far field
   (FarField1)
   Using standard far field calculations
   Computation of the far field values in the frequency domain
  100%  
   Exporting of the far field values
  100%  
 --- Processing frequency 149 of 150 ( 9.49866E+09 Hz)
 --- Direction of incidence loop: 1 of 3
 Checking the geometrical input data (frequency dependent)
 Ray launching/tracing for RL-GO (all sources)
    0%    1%    2%    3%    4%    5%    6%    7%    8%    9%   10%   11%   12%   13%   14%   15%   16%   17%   18%   19%   20%   21%   22%   23%   24%   25%   26%   27%   28%   29%   30%   31%   32%   33%   34%   35%   36%   37%   38%   39%   40%   41%   42%   43%   44%   45%   46%   47%   48%   49%   50%   51%   52%   53%   54%   55%   56%   57%   58%   59%   60%   61%   62%   63%   64%   65%   66%   67%   68%   69%   70%   71%   72%   73%   74%   75%   76%   77%   78%   79%   80%   81%   82%   83%   84%   85%   86%   87%   88%   89%   90%   91%   92%   93%   94%   95%   96%   97%   98%   99%  100%  100%  
 Determination of the impedances and powers
    0%  100%  
 Calculate the far field
   (FarField1)
   Using standard far field calculations
   Computation of the far field values in the frequency domain
  100%  
   Exporting of the far field values
  100%  
 --- Direction of incidence loop: 2 of 3
 Ray launching/tracing for RL-GO (all sources)
    2%    3%    4%    5%    6%    7%    8%    9%   10%   11%   12%   13%   14%   15%   16%   17%   18%   19%   20%   21%   22%   23%   24%   25%   26%   27%   28%   29%   30%   31%   32%   33%   34%   35%   36%   37%   38%   39%   40%   41%   42%   43%   44%   45%   46%   47%   48%   49%   50%   51%   52%   53%   54%   55%   56%   57%   58%   59%   60%   61%   62%   63%   64%   65%   66%   67%   68%   69%   70%   71%   72%   73%   74%   75%   76%   77%   78%   79%   80%   81%   82%   83%   84%   85%   86%   87%   88%   89%   90%   91%   92%   93%   94%   95%   96%   98%  100%  
 Determination of the impedances and powers
    0%  100%  
 Calculate the far field
   (FarField1)
   Using standard far field calculations
   Computation of the far field values in the frequency domain
  100%  
   Exporting of the far field values
  100%  
 --- Direction of incidence loop: 3 of 3
 Ray launching/tracing for RL-GO (all sources)
    0%    1%    2%    3%    4%    5%    6%    7%    8%    9%   10%   11%   12%   13%   14%   15%   16%   17%   18%   19%   20%   21%   22%   23%   24%   25%   26%   27%   28%   29%   30%   31%   32%   33%   34%   35%   36%   37%   38%   39%   40%   41%   42%   43%   44%   45%   46%   47%   48%   49%   50%   51%   52%   53%   54%   55%   56%   57%   58%   59%   60%   61%   62%   63%   64%   65%   66%   67%   68%   69%   70%   71%   72%   73%   74%   75%   76%   77%   78%   79%   80%   81%   82%   83%   84%   85%   86%   87%   88%   89%   90%   91%   92%   93%   94%   95%   96%   97%   98%   99%  100%  100%  
 Determination of the impedances and powers
    0%  100%  
 Calculate the far field
   (FarField1)
   Using standard far field calculations
   Computation of the far field values in the frequency domain
  100%  
   Exporting of the far field values
  100%  
 --- Processing frequency 150 of 150 ( 9.50000E+09 Hz)
 --- Direction of incidence loop: 1 of 3
 Checking the geometrical input data (frequency dependent)
 Ray launching/tracing for RL-GO (all sources)
    0%    1%    2%    3%    4%    5%    6%    7%    8%    9%   10%   11%   12%   13%   14%   15%   16%   17%   18%   19%   20%   21%   22%   23%   24%   25%   26%   27%   28%   29%   30%   31%   32%   33%   34%   35%   36%   37%   38%   39%   40%   41%   42%   43%   44%   45%   46%   47%   48%   49%   50%   51%   52%   53%   54%   55%   56%   57%   58%   59%   60%   61%   62%   63%   64%   65%   66%   67%   68%   69%   70%   71%   72%   73%   74%   75%   76%   77%   78%   79%   80%   81%   82%   83%   84%   85%   86%   87%   88%   89%   90%   91%   92%   93%   94%   95%   96%   97%   98%   99%  100%  100%  
 Determination of the impedances and powers
    0%  100%  
 Calculate the far field
   (FarField1)
   Using standard far field calculations
   Computation of the far field values in the frequency domain
  100%  
   Exporting of the far field values
  100%  
 --- Direction of incidence loop: 2 of 3
 Ray launching/tracing for RL-GO (all sources)
    2%    3%    4%    5%    6%    7%    8%    9%   10%   11%   12%   13%   14%   15%   16%   17%   18%   19%   20%   21%   22%   23%   24%   25%   26%   27%   28%   29%   30%   31%   32%   33%   34%   35%   36%   37%   38%   39%   40%   41%   42%   43%   44%   45%   46%   47%   48%   49%   50%   51%   52%   53%   54%   55%   56%   57%   58%   59%   60%   61%   62%   63%   64%   65%   66%   67%   68%   69%   70%   71%   72%   73%   74%   75%   76%   77%   78%   79%   80%   81%   82%   83%   84%   85%   86%   87%   88%   89%   90%   91%   92%   93%   94%   95%   96%   98%  100%  
 Determination of the impedances and powers
    0%  100%  
 Calculate the far field
   (FarField1)
   Using standard far field calculations
   Computation of the far field values in the frequency domain
  100%  
   Exporting of the far field values
  100%  
 --- Direction of incidence loop: 3 of 3
 Ray launching/tracing for RL-GO (all sources)
    0%    1%    2%    3%    4%    5%    6%    7%    8%    9%   10%   11%   12%   13%   14%   15%   16%   17%   18%   19%   20%   21%   22%   23%   24%   25%   26%   27%   28%   29%   30%   31%   32%   33%   34%   35%   36%   37%   38%   39%   40%   41%   42%   43%   44%   45%   46%   47%   48%   49%   50%   51%   52%   53%   54%   55%   56%   57%   58%   59%   60%   61%   62%   63%   64%   65%   66%   67%   68%   69%   70%   71%   72%   73%   74%   75%   76%   77%   78%   79%   80%   81%   82%   83%   84%   85%   86%   87%   88%   89%   90%   91%   92%   93%   94%   95%   96%   97%   98%   99%  100%  100%  
 Determination of the impedances and powers
    0%  100%  
 Calculate the far field
   (FarField1)
   Using standard far field calculations
   Computation of the far field values in the frequency domain
  100%  
   Exporting of the far field values
  100%  

Finished


PS:

Read file <7673550.output> for stderr output of this job.

