Sender: LSF System <lsfadmin@b2045>
Subject: Job 7673544: <1-boat-0du-2L-modelMesh-hrrp-lowphi-beside> in cluster <magiccube3> Done

Job <1-boat-0du-2L-modelMesh-hrrp-lowphi-beside> was submitted from host <ln06> by user <tshu008> in cluster <magiccube3> at Fri Apr 26 23:00:36 2024
Job was executed on host(s) <32*b2045>, in queue <LS-DYNA>, as user <tshu008> in cluster <magiccube3> at Sun Apr 28 11:04:29 2024
                            <32*b2017>
                            <32*b2046>
                            <32*b2026>
                            <32*b2024>
                            <32*b2033>
                            <32*b2022>
                            <32*b2074>
</public/home/users/tshu008> was used as the home directory.
</public/home/users/tshu008/czh> was used as the working directory.
Started at Sun Apr 28 11:04:29 2024
Terminated at Sun Apr 28 11:51:51 2024
Results reported at Sun Apr 28 11:51:51 2024

Your job looked like:

------------------------------------------------------------
# LSBATCH: User input

#!/bin/bash
#BSUB -q snode
#BSUB -n 256
#BSUB -R "span[ptile=32]"
#BSUB -J 1-boat-0du-2L-modelMesh-hrrp-lowphi-beside
#BSUB -eo %J.output

CURDIR=$PWD
cd $CURDIR

APP_NAME=esource
NP=256
NP_PER_NODE=16
RUN="RAW"


#Create nodelist

rm -f nodelist
touch nodelist

#start creating .nodelist
for i in `echo $LSB_HOSTS`
do
echo $i >> $PWD/nodelist
done
NP=`cat $PWD/nodelist|wc -w`

NODELIST=""
for i in `cat $PWD/nodelist | sort | uniq`
do
NUM_PROC=`cat $PWD/nodelist | grep $i | wc -l`
if [ "$NODELIST" = "" ]; then
   NODELIST="['$i',$NUM_PROC]"
else
   NODELIST="$NODELIST,['$i',$NUM_PROC]"
fi
done

echo "NODELIST is $NODELIST"

export PATH=/public/home/users/tshu008/software/altair/feko/bin/:/public/home/users/hpcplusadmin1/h:/public/ibm/lsf10/10.1/linux3.10-glibc2.17-x86_64/etc:/public/ibm/lsf10/10.1/linux3.10-glibc2.17-x86_64/bin:/usr/lib64/qt-3.3/bin:/public/home/users/tshu008/perl5/bin:/opt/clusconf/bin:/usr/bin:/bin:/usr/sbin:/sbin:/usr/local/openssh/bin:/usr/local/sbin:/public/home/users/tshu008/.local/bin:/public/home/users/tshu008/bin
runfeko 1-boat-0du-2L-modelMesh-hrrp-lowphi-beside -np 256 --machines-file $LSB_DJOB_HOSTFILE



------------------------------------------------------------

Successfully completed.

Resource usage summary:

    CPU time :                                   89076.38 sec.
    Max Memory :                                 1100 MB
    Average Memory :                             1070.52 MB
    Total Requested Memory :                     -
    Delta Memory :                               -
    Max Swap :                                   285 MB
    Max Processes :                              49
    Max Threads :                                59
    Run time :                                   2842 sec.
    Turnaround time :                            132675 sec.

The output (if any) follows:

NODELIST is ['b2017',32],['b2022',32],['b2024',32],['b2026',32],['b2033',32],['b2045',32],['b2046',32],['b2074',32]

RUNFEKO Version 2017.1-14 from 2016-11-25
        Copyright (c) 1999-2014 Altair Development S.A. (Pty) Ltd
        Copyright (c) 2014-2017 Altair Engineering, Inc.

NOTE: Running CADFEKO_BATCH since file "1-boat-0du-2L-modelMesh-hrrp-lowphi-beside.pre" not found

CADFEKO_BATCH Version 2017.1-300391 (x64) from 2017-03-15
          Copyright (c) 1999-2014 Altair Development S.A. (Pty) Ltd
          Copyright (c) 2014-2017 Altair Engineering, Inc.

Loading mesh entities...... 50%100%
Building connectivity map......100%100%
Warning 16097: 'MeshImport' has not been remeshed because it is being used as the simulation mesh.
Mesh has been generated:
  34708 triangles
_ 50%100%100%
Saving cfm file......100%100%
Saving geometry......100%100%
NOTE: Running PREFEKO since file "1-boat-0du-2L-modelMesh-hrrp-lowphi-beside.fek" not found

PREFEKO Version 2017.1-34 from 2017-02-06
        Copyright (c) 1999-2014 Altair Development S.A. (Pty) Ltd
        Copyright (c) 2014-2017 Altair Engineering, Inc.


Creating file 1-boat-0du-2L-modelMesh-hrrp-lowphi-beside.fek, please be patient ...
File 1-boat-0du-2L-modelMesh-hrrp-lowphi-beside.fek has been created:
  34708 metallic triangles in free space

 

FEKO.CSV  Version 2017.1-403 from 2017-03-14
          Copyright (c) 1999-2014 Altair Development S.A. (Pty) Ltd
          Copyright (c) 2014-2017 Altair Engineering, Inc.

File:     1-boat-0du-2L-modelMesh-hrrp-lowphi-beside
Memory:   Unlimited, system allows maximum usage of 5.850 GByte
          (for parallel runs memory limit is per process)
          (installed memory 187.413 GByte, thereof free 177.314 GByte)

---> Process   80 of 256 active on b2046                       (PID:    90515) using 1 threads
---> Process    0 of 256 active on b2045                       (PID:    25569) using 1 threads
---> Process  168 of 256 active on b2033                       (PID:   215379) using 1 threads
---> Process  192 of 256 active on b2022                       (PID:   213434) using 1 threads
---> Process  160 of 256 active on b2033                       (PID:   215371) using 1 threads
---> Process  161 of 256 active on b2033                       (PID:   215372) using 1 threads
---> Process   32 of 256 active on b2017                       (PID:   128252) using 1 threads
---> Process  100 of 256 active on b2026                       (PID:   133951) using 1 threads
---> Process   16 of 256 active on b2045                       (PID:    25585) using 1 threads
---> Process  130 of 256 active on b2024                       (PID:   131017) using 1 threads
---> Process   18 of 256 active on b2045                       (PID:    25587) using 1 threads
---> Process  196 of 256 active on b2022                       (PID:   213438) using 1 threads
---> Process   96 of 256 active on b2026                       (PID:   133947) using 1 threads
---> Process   48 of 256 active on b2017                       (PID:   128268) using 1 threads
---> Process   33 of 256 active on b2017                       (PID:   128253) using 1 threads
---> Process  176 of 256 active on b2033                       (PID:   215387) using 1 threads
---> Process   17 of 256 active on b2045                       (PID:    25586) using 1 threads
---> Process  193 of 256 active on b2022                       (PID:   213435) using 1 threads
---> Process   98 of 256 active on b2026                       (PID:   133949) using 1 threads
---> Process   34 of 256 active on b2017                       (PID:   128254) using 1 threads
---> Process  140 of 256 active on b2024                       (PID:   131027) using 1 threads
---> Process  112 of 256 active on b2026                       (PID:   133963) using 1 threads
---> Process   40 of 256 active on b2017                       (PID:   128260) using 1 threads
---> Process  194 of 256 active on b2022                       (PID:   213436) using 1 threads
---> Process  164 of 256 active on b2033                       (PID:   215375) using 1 threads
---> Process    2 of 256 active on b2045                       (PID:    25571) using 1 threads
---> Process  136 of 256 active on b2024                       (PID:   131023) using 1 threads
---> Process   64 of 256 active on b2046                       (PID:    90499) using 1 threads
---> Process  169 of 256 active on b2033                       (PID:   215380) using 1 threads
---> Process  208 of 256 active on b2022                       (PID:   213450) using 1 threads
---> Process   88 of 256 active on b2046                       (PID:    90523) using 1 threads
---> Process  142 of 256 active on b2024                       (PID:   131029) using 1 threads
---> Process  195 of 256 active on b2022                       (PID:   213437) using 1 threads
---> Process  170 of 256 active on b2033                       (PID:   215381) using 1 threads
---> Process  138 of 256 active on b2024                       (PID:   131025) using 1 threads
---> Process    3 of 256 active on b2045                       (PID:    25572) using 1 threads
---> Process  200 of 256 active on b2022                       (PID:   213442) using 1 threads
---> Process  102 of 256 active on b2026                       (PID:   133953) using 1 threads
---> Process  172 of 256 active on b2033                       (PID:   215383) using 1 threads
---> Process  128 of 256 active on b2024                       (PID:   131015) using 1 threads
---> Process  104 of 256 active on b2026                       (PID:   133955) using 1 threads
---> Process   89 of 256 active on b2046                       (PID:    90524) using 1 threads
---> Process  137 of 256 active on b2024                       (PID:   131024) using 1 threads
---> Process   97 of 256 active on b2026                       (PID:   133948) using 1 threads
---> Process   52 of 256 active on b2017                       (PID:   128272) using 1 threads
---> Process  162 of 256 active on b2033                       (PID:   215373) using 1 threads
---> Process  129 of 256 active on b2024                       (PID:   131016) using 1 threads
---> Process  101 of 256 active on b2026                       (PID:   133952) using 1 threads
---> Process   36 of 256 active on b2017                       (PID:   128256) using 1 threads
---> Process  166 of 256 active on b2033                       (PID:   215377) using 1 threads
---> Process    1 of 256 active on b2045                       (PID:    25570) using 1 threads
---> Process  197 of 256 active on b2022                       (PID:   213439) using 1 threads
---> Process   49 of 256 active on b2017                       (PID:   128269) using 1 threads
---> Process  184 of 256 active on b2033                       (PID:   215395) using 1 threads
---> Process  131 of 256 active on b2024                       (PID:   131018) using 1 threads
---> Process  216 of 256 active on b2022                       (PID:   213458) using 1 threads
---> Process  116 of 256 active on b2026                       (PID:   133967) using 1 threads
---> Process   50 of 256 active on b2017                       (PID:   128270) using 1 threads
---> Process   68 of 256 active on b2046                       (PID:    90503) using 1 threads
---> Process  165 of 256 active on b2033                       (PID:   215376) using 1 threads
---> Process  145 of 256 active on b2024                       (PID:   131032) using 1 threads
---> Process   19 of 256 active on b2045                       (PID:    25588) using 1 threads
---> Process  212 of 256 active on b2022                       (PID:   213454) using 1 threads
---> Process  114 of 256 active on b2026                       (PID:   133965) using 1 threads
---> Process   41 of 256 active on b2017                       (PID:   128261) using 1 threads
---> Process   70 of 256 active on b2046                       (PID:    90505) using 1 threads
---> Process  180 of 256 active on b2033                       (PID:   215391) using 1 threads
---> Process  144 of 256 active on b2024                       (PID:   131031) using 1 threads
---> Process  201 of 256 active on b2022                       (PID:   213443) using 1 threads
---> Process  120 of 256 active on b2026                       (PID:   133971) using 1 threads
---> Process   56 of 256 active on b2017                       (PID:   128276) using 1 threads
---> Process   85 of 256 active on b2046                       (PID:    90520) using 1 threads
---> Process  173 of 256 active on b2033                       (PID:   215384) using 1 threads
---> Process  148 of 256 active on b2024                       (PID:   131035) using 1 threads
---> Process    6 of 256 active on b2045                       (PID:    25575) using 1 threads
---> Process  204 of 256 active on b2022                       (PID:   213446) using 1 threads
---> Process  113 of 256 active on b2026                       (PID:   133964) using 1 threads
---> Process   35 of 256 active on b2017                       (PID:   128255) using 1 threads
---> Process   65 of 256 active on b2046                       (PID:    90500) using 1 threads
---> Process  174 of 256 active on b2033                       (PID:   215385) using 1 threads
---> Process  132 of 256 active on b2024                       (PID:   131019) using 1 threads
---> Process    4 of 256 active on b2045                       (PID:    25573) using 1 threads
---> Process  202 of 256 active on b2022                       (PID:   213444) using 1 threads
---> Process   99 of 256 active on b2026                       (PID:   133950) using 1 threads
---> Process   44 of 256 active on b2017                       (PID:   128264) using 1 threads
---> Process   66 of 256 active on b2046                       (PID:    90501) using 1 threads
---> Process  171 of 256 active on b2033                       (PID:   215382) using 1 threads
---> Process  139 of 256 active on b2024                       (PID:   131026) using 1 threads
---> Process   31 of 256 active on b2045                       (PID:    25600) using 1 threads
---> Process  205 of 256 active on b2022                       (PID:   213447) using 1 threads
---> Process  105 of 256 active on b2026                       (PID:   133956) using 1 threads
---> Process   42 of 256 active on b2017                       (PID:   128262) using 1 threads
---> Process   84 of 256 active on b2046                       (PID:    90519) using 1 threads
---> Process  163 of 256 active on b2033                       (PID:   215374) using 1 threads
---> Process  143 of 256 active on b2024                       (PID:   131030) using 1 threads
---> Process    7 of 256 active on b2045                       (PID:    25576) using 1 threads
---> Process  198 of 256 active on b2022                       (PID:   213440) using 1 threads
---> Process  115 of 256 active on b2026                       (PID:   133966) using 1 threads
---> Process   51 of 256 active on b2017                       (PID:   128271) using 1 threads
---> Process   72 of 256 active on b2046                       (PID:    90507) using 1 threads
---> Process  178 of 256 active on b2033                       (PID:   215389) using 1 threads
---> Process  134 of 256 active on b2024                       (PID:   131021) using 1 threads
---> Process   10 of 256 active on b2045                       (PID:    25579) using 1 threads
---> Process  209 of 256 active on b2022                       (PID:   213451) using 1 threads
---> Process  108 of 256 active on b2026                       (PID:   133959) using 1 threads
---> Process   37 of 256 active on b2017                       (PID:   128257) using 1 threads
---> Process   90 of 256 active on b2046                       (PID:    90525) using 1 threads
---> Process  189 of 256 active on b2033                       (PID:   215400) using 1 threads
---> Process  226 of 256 active on b2074                       (PID:   221814) using 1 threads
---> Process  152 of 256 active on b2024                       (PID:   131039) using 1 threads
---> Process    8 of 256 active on b2045                       (PID:    25577) using 1 threads
---> Process  210 of 256 active on b2022                       (PID:   213452) using 1 threads
---> Process  119 of 256 active on b2026                       (PID:   133970) using 1 threads
---> Process   38 of 256 active on b2017                       (PID:   128258) using 1 threads
---> Process   82 of 256 active on b2046                       (PID:    90517) using 1 threads
---> Process  188 of 256 active on b2033                       (PID:   215399) using 1 threads
---> Process  244 of 256 active on b2074                       (PID:   221832) using 1 threads
---> Process  151 of 256 active on b2024                       (PID:   131038) using 1 threads
---> Process   12 of 256 active on b2045                       (PID:    25581) using 1 threads
---> Process  218 of 256 active on b2022                       (PID:   213460) using 1 threads
---> Process  103 of 256 active on b2026                       (PID:   133954) using 1 threads
---> Process   53 of 256 active on b2017                       (PID:   128273) using 1 threads
---> Process   93 of 256 active on b2046                       (PID:    90528) using 1 threads
---> Process  177 of 256 active on b2033                       (PID:   215388) using 1 threads
---> Process  225 of 256 active on b2074                       (PID:   221813) using 1 threads
---> Process  133 of 256 active on b2024                       (PID:   131020) using 1 threads
---> Process    9 of 256 active on b2045                       (PID:    25578) using 1 threads
---> Process  217 of 256 active on b2022                       (PID:   213459) using 1 threads
---> Process  122 of 256 active on b2026                       (PID:   133973) using 1 threads
---> Process   54 of 256 active on b2017                       (PID:   128274) using 1 threads
---> Process   67 of 256 active on b2046                       (PID:    90502) using 1 threads
---> Process  185 of 256 active on b2033                       (PID:   215396) using 1 threads
---> Process  227 of 256 active on b2074                       (PID:   221815) using 1 threads
---> Process  141 of 256 active on b2024                       (PID:   131028) using 1 threads
---> Process   13 of 256 active on b2045                       (PID:    25582) using 1 threads
---> Process  220 of 256 active on b2022                       (PID:   213462) using 1 threads
---> Process  106 of 256 active on b2026                       (PID:   133957) using 1 threads
---> Process   58 of 256 active on b2017                       (PID:   128278) using 1 threads
---> Process   75 of 256 active on b2046                       (PID:    90510) using 1 threads
---> Process  186 of 256 active on b2033                       (PID:   215397) using 1 threads
---> Process  242 of 256 active on b2074                       (PID:   221830) using 1 threads
---> Process  135 of 256 active on b2024                       (PID:   131022) using 1 threads
---> Process   11 of 256 active on b2045                       (PID:    25580) using 1 threads
---> Process  214 of 256 active on b2022                       (PID:   213456) using 1 threads
---> Process  121 of 256 active on b2026                       (PID:   133972) using 1 threads
---> Process   61 of 256 active on b2017                       (PID:   128281) using 1 threads
---> Process   91 of 256 active on b2046                       (PID:    90526) using 1 threads
---> Process  187 of 256 active on b2033                       (PID:   215398) using 1 threads
---> Process  230 of 256 active on b2074                       (PID:   221818) using 1 threads
---> Process  149 of 256 active on b2024                       (PID:   131036) using 1 threads
---> Process   14 of 256 active on b2045                       (PID:    25583) using 1 threads
---> Process  211 of 256 active on b2022                       (PID:   213453) using 1 threads
---> Process  117 of 256 active on b2026                       (PID:   133968) using 1 threads
---> Process   57 of 256 active on b2017                       (PID:   128277) using 1 threads
---> Process   92 of 256 active on b2046                       (PID:    90527) using 1 threads
---> Process  167 of 256 active on b2033                       (PID:   215378) using 1 threads
---> Process  231 of 256 active on b2074                       (PID:   221819) using 1 threads
---> Process  156 of 256 active on b2024                       (PID:   131043) using 1 threads
---> Process   20 of 256 active on b2045                       (PID:    25589) using 1 threads
---> Process  213 of 256 active on b2022                       (PID:   213455) using 1 threads
---> Process  110 of 256 active on b2026                       (PID:   133961) using 1 threads
---> Process   46 of 256 active on b2017                       (PID:   128266) using 1 threads
---> Process   76 of 256 active on b2046                       (PID:    90511) using 1 threads
---> Process  175 of 256 active on b2033                       (PID:   215386) using 1 threads
---> Process  229 of 256 active on b2074                       (PID:   221817) using 1 threads
---> Process  147 of 256 active on b2024                       (PID:   131034) using 1 threads
---> Process   22 of 256 active on b2045                       (PID:    25591) using 1 threads
---> Process  219 of 256 active on b2022                       (PID:   213461) using 1 threads
---> Process  118 of 256 active on b2026                       (PID:   133969) using 1 threads
---> Process   45 of 256 active on b2017                       (PID:   128265) using 1 threads
---> Process   81 of 256 active on b2046                       (PID:    90516) using 1 threads
---> Process  181 of 256 active on b2033                       (PID:   215392) using 1 threads
---> Process  241 of 256 active on b2074                       (PID:   221829) using 1 threads
---> Process  155 of 256 active on b2024                       (PID:   131042) using 1 threads
---> Process   21 of 256 active on b2045                       (PID:    25590) using 1 threads
---> Process  221 of 256 active on b2022                       (PID:   213463) using 1 threads
---> Process  107 of 256 active on b2026                       (PID:   133958) using 1 threads
---> Process   39 of 256 active on b2017                       (PID:   128259) using 1 threads
---> Process   95 of 256 active on b2046                       (PID:    90530) using 1 threads
---> Process  182 of 256 active on b2033                       (PID:   215393) using 1 threads
---> Process  228 of 256 active on b2074                       (PID:   221816) using 1 threads
---> Process  146 of 256 active on b2024                       (PID:   131033) using 1 threads
---> Process   15 of 256 active on b2045                       (PID:    25584) using 1 threads
---> Process  207 of 256 active on b2022                       (PID:   213449) using 1 threads
---> Process  124 of 256 active on b2026                       (PID:   133975) using 1 threads
---> Process   60 of 256 active on b2017                       (PID:   128280) using 1 threads
---> Process   86 of 256 active on b2046                       (PID:    90521) using 1 threads
---> Process  190 of 256 active on b2033                       (PID:   215401) using 1 threads
---> Process  234 of 256 active on b2074                       (PID:   221822) using 1 threads
---> Process  150 of 256 active on b2024                       (PID:   131037) using 1 threads
---> Process   28 of 256 active on b2045                       (PID:    25597) using 1 threads
---> Process  215 of 256 active on b2022                       (PID:   213457) using 1 threads
---> Process  123 of 256 active on b2026                       (PID:   133974) using 1 threads
---> Process   43 of 256 active on b2017                       (PID:   128263) using 1 threads
---> Process   87 of 256 active on b2046                       (PID:    90522) using 1 threads
---> Process  179 of 256 active on b2033                       (PID:   215390) using 1 threads
---> Process  240 of 256 active on b2074                       (PID:   221828) using 1 threads
---> Process  153 of 256 active on b2024                       (PID:   131040) using 1 threads
---> Process    5 of 256 active on b2045                       (PID:    25574) using 1 threads
---> Process  199 of 256 active on b2022                       (PID:   213441) using 1 threads
---> Process  109 of 256 active on b2026                       (PID:   133960) using 1 threads
---> Process   55 of 256 active on b2017                       (PID:   128275) using 1 threads
---> Process   83 of 256 active on b2046                       (PID:    90518) using 1 threads
---> Process  183 of 256 active on b2033                       (PID:   215394) using 1 threads
---> Process  232 of 256 active on b2074                       (PID:   221820) using 1 threads
---> Process  154 of 256 active on b2024                       (PID:   131041) using 1 threads
---> Process   24 of 256 active on b2045                       (PID:    25593) using 1 threads
---> Process  206 of 256 active on b2022                       (PID:   213448) using 1 threads
---> Process  126 of 256 active on b2026                       (PID:   133977) using 1 threads
---> Process   47 of 256 active on b2017                       (PID:   128267) using 1 threads
---> Process   69 of 256 active on b2046                       (PID:    90504) using 1 threads
---> Process  191 of 256 active on b2033                       (PID:   215402) using 1 threads
---> Process  224 of 256 active on b2074                       (PID:   221812) using 1 threads
---> Process  157 of 256 active on b2024                       (PID:   131044) using 1 threads
---> Process   25 of 256 active on b2045                       (PID:    25594) using 1 threads
---> Process  222 of 256 active on b2022                       (PID:   213464) using 1 threads
---> Process  127 of 256 active on b2026                       (PID:   133978) using 1 threads
---> Process   59 of 256 active on b2017                       (PID:   128279) using 1 threads
---> Process   94 of 256 active on b2046                       (PID:    90529) using 1 threads
---> Process  233 of 256 active on b2074                       (PID:   221821) using 1 threads
---> Process  158 of 256 active on b2024                       (PID:   131045) using 1 threads
---> Process   26 of 256 active on b2045                       (PID:    25595) using 1 threads
---> Process  203 of 256 active on b2022                       (PID:   213445) using 1 threads
---> Process  111 of 256 active on b2026                       (PID:   133962) using 1 threads
---> Process   62 of 256 active on b2017                       (PID:   128282) using 1 threads
---> Process   73 of 256 active on b2046                       (PID:    90508) using 1 threads
---> Process  235 of 256 active on b2074                       (PID:   221823) using 1 threads
---> Process  159 of 256 active on b2024                       (PID:   131046) using 1 threads
---> Process   29 of 256 active on b2045                       (PID:    25598) using 1 threads
---> Process  223 of 256 active on b2022                       (PID:   213465) using 1 threads
---> Process  125 of 256 active on b2026                       (PID:   133976) using 1 threads
---> Process   63 of 256 active on b2017                       (PID:   128283) using 1 threads
---> Process   71 of 256 active on b2046                       (PID:    90506) using 1 threads
---> Process  236 of 256 active on b2074                       (PID:   221824) using 1 threads
---> Process   23 of 256 active on b2045                       (PID:    25592) using 1 threads
---> Process   74 of 256 active on b2046                       (PID:    90509) using 1 threads
---> Process  237 of 256 active on b2074                       (PID:   221825) using 1 threads
---> Process   27 of 256 active on b2045                       (PID:    25596) using 1 threads
---> Process   77 of 256 active on b2046                       (PID:    90512) using 1 threads
---> Process  246 of 256 active on b2074                       (PID:   221834) using 1 threads
---> Process   78 of 256 active on b2046                       (PID:    90513) using 1 threads
---> Process  247 of 256 active on b2074                       (PID:   221835) using 1 threads
---> Process   79 of 256 active on b2046                       (PID:    90514) using 1 threads
---> Process  245 of 256 active on b2074                       (PID:   221833) using 1 threads
---> Process  243 of 256 active on b2074                       (PID:   221831) using 1 threads
---> Process  238 of 256 active on b2074                       (PID:   221826) using 1 threads
---> Process  249 of 256 active on b2074                       (PID:   221837) using 1 threads
---> Process  239 of 256 active on b2074                       (PID:   221827) using 1 threads
---> Process   30 of 256 active on b2045                       (PID:    25599) using 1 threads
---> Process  250 of 256 active on b2074                       (PID:   221838) using 1 threads
---> Process  251 of 256 active on b2074                       (PID:   221839) using 1 threads
---> Process  248 of 256 active on b2074                       (PID:   221836) using 1 threads
---> Process  254 of 256 active on b2074                       (PID:   221842) using 1 threads
---> Process  252 of 256 active on b2074                       (PID:   221840) using 1 threads
---> Process  255 of 256 active on b2074                       (PID:   221843) using 1 threads
---> Process  253 of 256 active on b2074                       (PID:   221841) using 1 threads
 Processing the geometrical data for triangles
    0%  100%  
 Processing the geometric data for UTD/RL-GO regions
 Checking the geometrical input data
 --- Processing frequency 1 of 150 ( 9.30000E+09 Hz)
 --- Direction of incidence loop: 1 of 3
 +++ Processing configuration: StandardConfiguration1
 Checking the geometrical input data (frequency dependent)
 Ray launching/tracing for RL-GO (all sources)
    0%   20%   34%   51%   64%   81%   97%  100%  
 --> Currently a memory of 17.672 MByte has been allocated per process
     In total, this corresponds to 4.418 GByte for all processes
     (peak memory usage of 24.095 MByte per process so far)
 Determination of the impedances and powers
    0%  100%  
 Calculate the far field
   (FarField1)
   Using standard far field calculations
   Computation of the far field values in the frequency domain
  100%  
   Exporting of the far field values
  100%  
 --- Direction of incidence loop: 2 of 3
 Ray launching/tracing for RL-GO (all sources)
    8%   16%   27%   43%   61%   77%   92%  100%  
 Determination of the impedances and powers
    0%  100%  
 Calculate the far field
   (FarField1)
   Using standard far field calculations
   Computation of the far field values in the frequency domain
  100%  
   Exporting of the far field values
  100%  
 --- Direction of incidence loop: 3 of 3
 Ray launching/tracing for RL-GO (all sources)
    6%   11%   14%   18%   24%   27%   30%   34%   38%   42%   46%   49%   51%   55%   58%   62%   66%   71%   77%   81%   84%   87%   91%   95%  100%  
 Determination of the impedances and powers
    0%  100%  
 Calculate the far field
   (FarField1)
   Using standard far field calculations
   Computation of the far field values in the frequency domain
  100%  
   Exporting of the far field values
  100%  
 --- Processing frequency 2 of 150 ( 9.30134E+09 Hz)
 --- Direction of incidence loop: 1 of 3
 Checking the geometrical input data (frequency dependent)
 Ray launching/tracing for RL-GO (all sources)
   17%   32%   47%   63%   78%   90%  100%  
 Determination of the impedances and powers
    0%  100%  
 Calculate the far field
   (FarField1)
   Using standard far field calculations
   Computation of the far field values in the frequency domain
  100%  
   Exporting of the far field values
  100%  
 --- Direction of incidence loop: 2 of 3
 Ray launching/tracing for RL-GO (all sources)
   10%   19%   30%   47%   64%   81%   94%  100%  
 Determination of the impedances and powers
    0%  100%  
 Calculate the far field
   (FarField1)
   Using standard far field calculations
   Computation of the far field values in the frequency domain
  100%  
   Exporting of the far field values
  100%  
 --- Direction of incidence loop: 3 of 3
 Ray launching/tracing for RL-GO (all sources)
    6%   11%   14%   18%   24%   27%   30%   34%   38%   42%   46%   49%   51%   55%   58%   62%   66%   71%   77%   81%   84%   87%   91%   96%  100%  
 Determination of the impedances and powers
    0%  100%  
 Calculate the far field
   (FarField1)
   Using standard far field calculations
   Computation of the far field values in the frequency domain
  100%  
   Exporting of the far field values
  100%  
 --- Processing frequency 3 of 150 ( 9.30268E+09 Hz)
 --- Direction of incidence loop: 1 of 3
 Checking the geometrical input data (frequency dependent)
 Ray launching/tracing for RL-GO (all sources)
   13%   31%   45%   61%   76%   92%  100%  
 Determination of the impedances and powers
    0%  100%  
 Calculate the far field
   (FarField1)
   Using standard far field calculations
   Computation of the far field values in the frequency domain
  100%  
   Exporting of the far field values
  100%  
 --- Direction of incidence loop: 2 of 3
 Ray launching/tracing for RL-GO (all sources)
   10%   19%   30%   46%   63%   79%   93%  100%  
 Determination of the impedances and powers
    0%  100%  
 Calculate the far field
   (FarField1)
   Using standard far field calculations
   Computation of the far field values in the frequency domain
  100%  
   Exporting of the far field values
  100%  
 --- Direction of incidence loop: 3 of 3
 Ray launching/tracing for RL-GO (all sources)
    6%   11%   14%   15%   18%   24%   27%   30%   34%   38%   41%   45%   48%   51%   55%   58%   61%   64%   68%   74%   78%   82%   85%   88%   93%  100%  
 Determination of the impedances and powers
    0%  100%  
 Calculate the far field
   (FarField1)
   Using standard far field calculations
   Computation of the far field values in the frequency domain
  100%  
   Exporting of the far field values
  100%  
 --- Processing frequency 4 of 150 ( 9.30403E+09 Hz)
 --- Direction of incidence loop: 1 of 3
 Checking the geometrical input data (frequency dependent)
 Ray launching/tracing for RL-GO (all sources)
   18%   33%   48%   64%   78%   94%  100%  
 Determination of the impedances and powers
    0%  100%  
 Calculate the far field
   (FarField1)
   Using standard far field calculations
   Computation of the far field values in the frequency domain
  100%  
   Exporting of the far field values
  100%  
 --- Direction of incidence loop: 2 of 3
 Ray launching/tracing for RL-GO (all sources)
   10%   19%   30%   46%   64%   81%   94%  100%  
 Determination of the impedances and powers
    0%  100%  
 Calculate the far field
   (FarField1)
   Using standard far field calculations
   Computation of the far field values in the frequency domain
  100%  
   Exporting of the far field values
  100%  
 --- Direction of incidence loop: 3 of 3
 Ray launching/tracing for RL-GO (all sources)
    6%   11%   14%   18%   24%   27%   30%   34%   38%   42%   46%   49%   51%   55%   58%   62%   66%   71%   77%   81%   84%   87%   89%   95%  100%  
 Determination of the impedances and powers
    0%  100%  
 Calculate the far field
   (FarField1)
   Using standard far field calculations
   Computation of the far field values in the frequency domain
  100%  
   Exporting of the far field values
  100%  
 --- Processing frequency 5 of 150 ( 9.30537E+09 Hz)
 --- Direction of incidence loop: 1 of 3
 Checking the geometrical input data (frequency dependent)
 Ray launching/tracing for RL-GO (all sources)
   18%   33%   48%   63%   78%   94%  100%  
 Determination of the impedances and powers
    0%  100%  
 Calculate the far field
   (FarField1)
   Using standard far field calculations
   Computation of the far field values in the frequency domain
  100%  
   Exporting of the far field values
  100%  
 --- Direction of incidence loop: 2 of 3
 Ray launching/tracing for RL-GO (all sources)
   10%   19%   30%   46%   64%   81%   94%  100%  
 Determination of the impedances and powers
    0%  100%  
 Calculate the far field
   (FarField1)
   Using standard far field calculations
   Computation of the far field values in the frequency domain
  100%  
   Exporting of the far field values
  100%  
 --- Direction of incidence loop: 3 of 3
 Ray launching/tracing for RL-GO (all sources)
    6%   11%   14%   18%   24%   27%   30%   35%   39%   43%   46%   49%   52%   55%   59%   63%   66%   71%   77%   81%   84%   87%   91%   96%  100%  
 Determination of the impedances and powers
    0%  100%  
 Calculate the far field
   (FarField1)
   Using standard far field calculations
   Computation of the far field values in the frequency domain
  100%  
   Exporting of the far field values
  100%  
 --- Processing frequency 6 of 150 ( 9.30671E+09 Hz)
 --- Direction of incidence loop: 1 of 3
 Checking the geometrical input data (frequency dependent)
 Ray launching/tracing for RL-GO (all sources)
   18%   32%   47%   63%   78%   93%  100%  
 Determination of the impedances and powers
    0%  100%  
 Calculate the far field
   (FarField1)
   Using standard far field calculations
   Computation of the far field values in the frequency domain
  100%  
   Exporting of the far field values
  100%  
 --- Direction of incidence loop: 2 of 3
 Ray launching/tracing for RL-GO (all sources)
   10%   19%   30%   46%   64%   80%   94%  100%  
 Determination of the impedances and powers
    0%  100%  
 Calculate the far field
   (FarField1)
   Using standard far field calculations
   Computation of the far field values in the frequency domain
  100%  
   Exporting of the far field values
  100%  
 --- Direction of incidence loop: 3 of 3
 Ray launching/tracing for RL-GO (all sources)
    6%   11%   14%   18%   24%   27%   30%   35%   39%   43%   46%   49%   52%   55%   59%   62%   66%   71%   77%   81%   84%   87%   91%   96%  100%  
 Determination of the impedances and powers
    0%  100%  
 Calculate the far field
   (FarField1)
   Using standard far field calculations
   Computation of the far field values in the frequency domain
  100%  
   Exporting of the far field values
  100%  
 --- Processing frequency 7 of 150 ( 9.30805E+09 Hz)
 --- Direction of incidence loop: 1 of 3
 Checking the geometrical input data (frequency dependent)
 Ray launching/tracing for RL-GO (all sources)
   18%   33%   48%   63%   74%   88%  100%  
 Determination of the impedances and powers
    0%  100%  
 Calculate the far field
   (FarField1)
   Using standard far field calculations
   Computation of the far field values in the frequency domain
  100%  
   Exporting of the far field values
  100%  
 --- Direction of incidence loop: 2 of 3
 Ray launching/tracing for RL-GO (all sources)
    9%   17%   28%   43%   51%   68%   85%  100%  
 Determination of the impedances and powers
    0%  100%  
 Calculate the far field
   (FarField1)
   Using standard far field calculations
   Computation of the far field values in the frequency domain
  100%  
   Exporting of the far field values
  100%  
 --- Direction of incidence loop: 3 of 3
 Ray launching/tracing for RL-GO (all sources)
    5%    9%   12%   14%   18%   24%   27%   30%   34%   38%   41%   45%   48%   51%   55%   58%   62%   66%   71%   75%   78%   82%   86%   88%   93%  100%  
 Determination of the impedances and powers
    0%  100%  
 Calculate the far field
   (FarField1)
   Using standard far field calculations
   Computation of the far field values in the frequency domain
  100%  
   Exporting of the far field values
  100%  
 --- Processing frequency 8 of 150 ( 9.30940E+09 Hz)
 --- Direction of incidence loop: 1 of 3
 Checking the geometrical input data (frequency dependent)
 Ray launching/tracing for RL-GO (all sources)
   18%   33%   47%   63%   78%   87%  100%  
 Determination of the impedances and powers
    0%  100%  
 Calculate the far field
   (FarField1)
   Using standard far field calculations
   Computation of the far field values in the frequency domain
  100%  
   Exporting of the far field values
  100%  
 --- Direction of incidence loop: 2 of 3
 Ray launching/tracing for RL-GO (all sources)
   10%   19%   30%   46%   58%   74%   90%  100%  
 Determination of the impedances and powers
    0%  100%  
 Calculate the far field
   (FarField1)
   Using standard far field calculations
   Computation of the far field values in the frequency domain
  100%  
   Exporting of the far field values
  100%  
 --- Direction of incidence loop: 3 of 3
 Ray launching/tracing for RL-GO (all sources)
    6%   10%   13%   14%   18%   24%   27%   30%   35%   39%   43%   46%   49%   52%   55%   59%   62%   66%   71%   77%   81%   84%   87%   91%   96%  100%  
 Determination of the impedances and powers
    0%  100%  
 Calculate the far field
   (FarField1)
   Using standard far field calculations
   Computation of the far field values in the frequency domain
  100%  
   Exporting of the far field values
  100%  
 --- Processing frequency 9 of 150 ( 9.31074E+09 Hz)
 --- Direction of incidence loop: 1 of 3
 Checking the geometrical input data (frequency dependent)
 Ray launching/tracing for RL-GO (all sources)
   16%   32%   47%   61%   78%   93%  100%  
 Determination of the impedances and powers
    0%  100%  
 Calculate the far field
   (FarField1)
   Using standard far field calculations
   Computation of the far field values in the frequency domain
  100%  
   Exporting of the far field values
  100%  
 --- Direction of incidence loop: 2 of 3
 Ray launching/tracing for RL-GO (all sources)
   10%   19%   30%   47%   63%   79%   94%  100%  
 Determination of the impedances and powers
    0%  100%  
 Calculate the far field
   (FarField1)
   Using standard far field calculations
   Computation of the far field values in the frequency domain
  100%  
   Exporting of the far field values
  100%  
 --- Direction of incidence loop: 3 of 3
 Ray launching/tracing for RL-GO (all sources)
    6%   11%   13%   14%   18%   24%   27%   30%   35%   39%   43%   46%   50%   52%   55%   59%   63%   66%   72%   77%   82%   85%   87%   91%   95%  100%  
 Determination of the impedances and powers
    0%  100%  
 Calculate the far field
   (FarField1)
   Using standard far field calculations
   Computation of the far field values in the frequency domain
  100%  
   Exporting of the far field values
  100%  
 --- Processing frequency 10 of 150 ( 9.31208E+09 Hz)
 --- Direction of incidence loop: 1 of 3
 Checking the geometrical input data (frequency dependent)
 Ray launching/tracing for RL-GO (all sources)
   16%   32%   47%   61%   78%   93%  100%  
 Determination of the impedances and powers
    0%  100%  
 Calculate the far field
   (FarField1)
   Using standard far field calculations
   Computation of the far field values in the frequency domain
  100%  
   Exporting of the far field values
  100%  
 --- Direction of incidence loop: 2 of 3
 Ray launching/tracing for RL-GO (all sources)
   10%   20%   33%   57%   71%   90%  100%  
 Determination of the impedances and powers
    0%  100%  
 Calculate the far field
   (FarField1)
   Using standard far field calculations
   Computation of the far field values in the frequency domain
  100%  
   Exporting of the far field values
  100%  
 --- Direction of incidence loop: 3 of 3
 Ray launching/tracing for RL-GO (all sources)
    5%   10%   13%   14%   18%   24%   27%   30%   34%   39%   43%   46%   50%   52%   55%   59%   63%   66%   72%   77%   82%   85%   88%   93%  100%  
 Determination of the impedances and powers
    0%  100%  
 Calculate the far field
   (FarField1)
   Using standard far field calculations
   Computation of the far field values in the frequency domain
  100%  
   Exporting of the far field values
  100%  
 --- Processing frequency 11 of 150 ( 9.31342E+09 Hz)
 --- Direction of incidence loop: 1 of 3
 Checking the geometrical input data (frequency dependent)
 Ray launching/tracing for RL-GO (all sources)
   17%   32%   48%   61%   79%   93%  100%  
 Determination of the impedances and powers
    0%  100%  
 Calculate the far field
   (FarField1)
   Using standard far field calculations
   Computation of the far field values in the frequency domain
  100%  
   Exporting of the far field values
  100%  
 --- Direction of incidence loop: 2 of 3
 Ray launching/tracing for RL-GO (all sources)
   10%   20%   33%   56%   71%   90%  100%  
 Determination of the impedances and powers
    0%  100%  
 Calculate the far field
   (FarField1)
   Using standard far field calculations
   Computation of the far field values in the frequency domain
  100%  
   Exporting of the far field values
  100%  
 --- Direction of incidence loop: 3 of 3
 Ray launching/tracing for RL-GO (all sources)
    6%   11%   14%   18%   24%   27%   30%   35%   39%   43%   46%   49%   52%   55%   59%   63%   66%   72%   77%   82%   85%   88%   93%  100%  
 Determination of the impedances and powers
    0%  100%  
 Calculate the far field
   (FarField1)
   Using standard far field calculations
   Computation of the far field values in the frequency domain
  100%  
   Exporting of the far field values
  100%  
 --- Processing frequency 12 of 150 ( 9.31477E+09 Hz)
 --- Direction of incidence loop: 1 of 3
 Checking the geometrical input data (frequency dependent)
 Ray launching/tracing for RL-GO (all sources)
   17%   32%   48%   61%   79%   93%  100%  
 Determination of the impedances and powers
    0%  100%  
 Calculate the far field
   (FarField1)
   Using standard far field calculations
   Computation of the far field values in the frequency domain
  100%  
   Exporting of the far field values
  100%  
 --- Direction of incidence loop: 2 of 3
 Ray launching/tracing for RL-GO (all sources)
   10%   20%   33%   57%   71%   90%  100%  
 Determination of the impedances and powers
    0%  100%  
 Calculate the far field
   (FarField1)
   Using standard far field calculations
   Computation of the far field values in the frequency domain
  100%  
   Exporting of the far field values
  100%  
 --- Direction of incidence loop: 3 of 3
 Ray launching/tracing for RL-GO (all sources)
    6%   11%   14%   18%   24%   27%   30%   35%   39%   43%   46%   50%   52%   55%   59%   63%   66%   72%   77%   82%   85%   88%   93%  100%  
 Determination of the impedances and powers
    0%  100%  
 Calculate the far field
   (FarField1)
   Using standard far field calculations
   Computation of the far field values in the frequency domain
  100%  
   Exporting of the far field values
  100%  
 --- Processing frequency 13 of 150 ( 9.31611E+09 Hz)
 --- Direction of incidence loop: 1 of 3
 Checking the geometrical input data (frequency dependent)
 Ray launching/tracing for RL-GO (all sources)
   18%   33%   48%   62%   79%   94%  100%  
 Determination of the impedances and powers
    0%  100%  
 Calculate the far field
   (FarField1)
   Using standard far field calculations
   Computation of the far field values in the frequency domain
  100%  
   Exporting of the far field values
  100%  
 --- Direction of incidence loop: 2 of 3
 Ray launching/tracing for RL-GO (all sources)
   11%   20%   33%   56%   71%   89%  100%  
 Determination of the impedances and powers
    0%  100%  
 Calculate the far field
   (FarField1)
   Using standard far field calculations
   Computation of the far field values in the frequency domain
  100%  
   Exporting of the far field values
  100%  
 --- Direction of incidence loop: 3 of 3
 Ray launching/tracing for RL-GO (all sources)
    6%   11%   14%   17%   21%   26%   30%   34%   38%   42%   46%   49%   51%   55%   58%   62%   66%   71%   77%   81%   84%   87%   91%   96%  100%  
 Determination of the impedances and powers
    0%  100%  
 Calculate the far field
   (FarField1)
   Using standard far field calculations
   Computation of the far field values in the frequency domain
  100%  
   Exporting of the far field values
  100%  
 --- Processing frequency 14 of 150 ( 9.31745E+09 Hz)
 --- Direction of incidence loop: 1 of 3
 Checking the geometrical input data (frequency dependent)
 Ray launching/tracing for RL-GO (all sources)
   18%   33%   48%   61%   79%   93%  100%  
 Determination of the impedances and powers
    0%  100%  
 Calculate the far field
   (FarField1)
   Using standard far field calculations
   Computation of the far field values in the frequency domain
  100%  
   Exporting of the far field values
  100%  
 --- Direction of incidence loop: 2 of 3
 Ray launching/tracing for RL-GO (all sources)
   10%   20%   33%   56%   71%   89%  100%  
 Determination of the impedances and powers
    0%  100%  
 Calculate the far field
   (FarField1)
   Using standard far field calculations
   Computation of the far field values in the frequency domain
  100%  
   Exporting of the far field values
  100%  
 --- Direction of incidence loop: 3 of 3
 Ray launching/tracing for RL-GO (all sources)
    6%   11%   14%   15%   18%   24%   27%   30%   34%   38%   42%   46%   49%   51%   55%   58%   62%   66%   71%   77%   81%   84%   87%   90%   95%  100%  
 Determination of the impedances and powers
    0%  100%  
 Calculate the far field
   (FarField1)
   Using standard far field calculations
   Computation of the far field values in the frequency domain
  100%  
   Exporting of the far field values
  100%  
 --- Processing frequency 15 of 150 ( 9.31879E+09 Hz)
 --- Direction of incidence loop: 1 of 3
 Checking the geometrical input data (frequency dependent)
 Ray launching/tracing for RL-GO (all sources)
   16%   32%   46%   61%   77%   92%  100%  
 Determination of the impedances and powers
    0%  100%  
 Calculate the far field
   (FarField1)
   Using standard far field calculations
   Computation of the far field values in the frequency domain
  100%  
   Exporting of the far field values
  100%  
 --- Direction of incidence loop: 2 of 3
 Ray launching/tracing for RL-GO (all sources)
   10%   20%   33%   56%   71%   89%  100%  
 Determination of the impedances and powers
    0%  100%  
 Calculate the far field
   (FarField1)
   Using standard far field calculations
   Computation of the far field values in the frequency domain
  100%  
   Exporting of the far field values
  100%  
 --- Direction of incidence loop: 3 of 3
 Ray launching/tracing for RL-GO (all sources)
    6%   11%   14%   18%   24%   27%   30%   35%   39%   43%   46%   49%   51%   55%   58%   62%   66%   71%   77%   81%   84%   87%   91%   96%  100%  
 Determination of the impedances and powers
    0%  100%  
 Calculate the far field
   (FarField1)
   Using standard far field calculations
   Computation of the far field values in the frequency domain
  100%  
   Exporting of the far field values
  100%  
 --- Processing frequency 16 of 150 ( 9.32013E+09 Hz)
 --- Direction of incidence loop: 1 of 3
 Checking the geometrical input data (frequency dependent)
 Ray launching/tracing for RL-GO (all sources)
   18%   34%   48%   62%   79%   93%  100%  
 Determination of the impedances and powers
    0%  100%  
 Calculate the far field
   (FarField1)
   Using standard far field calculations
   Computation of the far field values in the frequency domain
  100%  
   Exporting of the far field values
  100%  
 --- Direction of incidence loop: 2 of 3
 Ray launching/tracing for RL-GO (all sources)
   11%   20%   33%   56%   71%   89%  100%  
 Determination of the impedances and powers
    0%  100%  
 Calculate the far field
   (FarField1)
   Using standard far field calculations
   Computation of the far field values in the frequency domain
  100%  
   Exporting of the far field values
  100%  
 --- Direction of incidence loop: 3 of 3
 Ray launching/tracing for RL-GO (all sources)
    6%   11%   14%   18%   24%   27%   30%   34%   38%   42%   46%   49%   51%   55%   58%   62%   66%   71%   77%   81%   84%   87%   91%   96%  100%  
 Determination of the impedances and powers
    0%  100%  
 Calculate the far field
   (FarField1)
   Using standard far field calculations
   Computation of the far field values in the frequency domain
  100%  
   Exporting of the far field values
  100%  
 --- Processing frequency 17 of 150 ( 9.32148E+09 Hz)
 --- Direction of incidence loop: 1 of 3
 Checking the geometrical input data (frequency dependent)
 Ray launching/tracing for RL-GO (all sources)
   18%   33%   48%   61%   79%   93%  100%  
 Determination of the impedances and powers
    0%  100%  
 Calculate the far field
   (FarField1)
   Using standard far field calculations
   Computation of the far field values in the frequency domain
  100%  
   Exporting of the far field values
  100%  
 --- Direction of incidence loop: 2 of 3
 Ray launching/tracing for RL-GO (all sources)
   10%   20%   33%   56%   71%   89%  100%  
 Determination of the impedances and powers
    0%  100%  
 Calculate the far field
   (FarField1)
   Using standard far field calculations
   Computation of the far field values in the frequency domain
  100%  
   Exporting of the far field values
  100%  
 --- Direction of incidence loop: 3 of 3
 Ray launching/tracing for RL-GO (all sources)
    6%   11%   14%   18%   24%   27%   30%   35%   39%   43%   46%   50%   52%   55%   59%   63%   66%   71%   77%   82%   85%   88%   93%  100%  
 Determination of the impedances and powers
    0%  100%  
 Calculate the far field
   (FarField1)
   Using standard far field calculations
   Computation of the far field values in the frequency domain
  100%  
   Exporting of the far field values
  100%  
 --- Processing frequency 18 of 150 ( 9.32282E+09 Hz)
 --- Direction of incidence loop: 1 of 3
 Checking the geometrical input data (frequency dependent)
 Ray launching/tracing for RL-GO (all sources)
   17%   32%   48%   61%   78%   93%  100%  
 Determination of the impedances and powers
    0%  100%  
 Calculate the far field
   (FarField1)
   Using standard far field calculations
   Computation of the far field values in the frequency domain
  100%  
   Exporting of the far field values
  100%  
 --- Direction of incidence loop: 2 of 3
 Ray launching/tracing for RL-GO (all sources)
   10%   20%   33%   56%   71%   89%  100%  
 Determination of the impedances and powers
    0%  100%  
 Calculate the far field
   (FarField1)
   Using standard far field calculations
   Computation of the far field values in the frequency domain
  100%  
   Exporting of the far field values
  100%  
 --- Direction of incidence loop: 3 of 3
 Ray launching/tracing for RL-GO (all sources)
    6%   11%   14%   18%   24%   27%   30%   35%   39%   43%   46%   50%   51%   53%   57%   61%   64%   68%   74%   78%   82%   86%   88%   93%  100%  
 Determination of the impedances and powers
    0%  100%  
 Calculate the far field
   (FarField1)
   Using standard far field calculations
   Computation of the far field values in the frequency domain
  100%  
   Exporting of the far field values
  100%  
 --- Processing frequency 19 of 150 ( 9.32416E+09 Hz)
 --- Direction of incidence loop: 1 of 3
 Checking the geometrical input data (frequency dependent)
 Ray launching/tracing for RL-GO (all sources)
   18%   34%   48%   61%   79%   93%  100%  
 Determination of the impedances and powers
    0%  100%  
 Calculate the far field
   (FarField1)
   Using standard far field calculations
   Computation of the far field values in the frequency domain
  100%  
   Exporting of the far field values
  100%  
 --- Direction of incidence loop: 2 of 3
 Ray launching/tracing for RL-GO (all sources)
   10%   20%   33%   56%   71%   89%  100%  
 Determination of the impedances and powers
    0%  100%  
 Calculate the far field
   (FarField1)
   Using standard far field calculations
   Computation of the far field values in the frequency domain
  100%  
   Exporting of the far field values
  100%  
 --- Direction of incidence loop: 3 of 3
 Ray launching/tracing for RL-GO (all sources)
    6%   11%   14%   18%   24%   27%   30%   34%   38%   42%   46%   49%   52%   55%   59%   62%   66%   71%   77%   81%   85%   88%   92%  100%  
 Determination of the impedances and powers
    0%  100%  
 Calculate the far field
   (FarField1)
   Using standard far field calculations
   Computation of the far field values in the frequency domain
  100%  
   Exporting of the far field values
  100%  
 --- Processing frequency 20 of 150 ( 9.32550E+09 Hz)
 --- Direction of incidence loop: 1 of 3
 Checking the geometrical input data (frequency dependent)
 Ray launching/tracing for RL-GO (all sources)
   17%   32%   48%   61%   78%   93%  100%  
 Determination of the impedances and powers
    0%  100%  
 Calculate the far field
   (FarField1)
   Using standard far field calculations
   Computation of the far field values in the frequency domain
  100%  
   Exporting of the far field values
  100%  
 --- Direction of incidence loop: 2 of 3
 Ray launching/tracing for RL-GO (all sources)
   10%   20%   33%   56%   71%   89%  100%  
 Determination of the impedances and powers
    0%  100%  
 Calculate the far field
   (FarField1)
   Using standard far field calculations
   Computation of the far field values in the frequency domain
  100%  
   Exporting of the far field values
  100%  
 --- Direction of incidence loop: 3 of 3
 Ray launching/tracing for RL-GO (all sources)
    6%   11%   14%   18%   24%   27%   30%   34%   38%   42%   46%   49%   51%   55%   58%   62%   66%   71%   77%   81%   84%   87%   91%   96%  100%  
 Determination of the impedances and powers
    0%  100%  
 Calculate the far field
   (FarField1)
   Using standard far field calculations
   Computation of the far field values in the frequency domain
  100%  
   Exporting of the far field values
  100%  
 --- Processing frequency 21 of 150 ( 9.32685E+09 Hz)
 --- Direction of incidence loop: 1 of 3
 Checking the geometrical input data (frequency dependent)
 Ray launching/tracing for RL-GO (all sources)
   18%   33%   48%   61%   78%   93%  100%  
 Determination of the impedances and powers
    0%  100%  
 Calculate the far field
   (FarField1)
   Using standard far field calculations
   Computation of the far field values in the frequency domain
  100%  
   Exporting of the far field values
  100%  
 --- Direction of incidence loop: 2 of 3
 Ray launching/tracing for RL-GO (all sources)
   10%   20%   33%   56%   71%   89%  100%  
 Determination of the impedances and powers
    0%  100%  
 Calculate the far field
   (FarField1)
   Using standard far field calculations
   Computation of the far field values in the frequency domain
  100%  
   Exporting of the far field values
  100%  
 --- Direction of incidence loop: 3 of 3
 Ray launching/tracing for RL-GO (all sources)
    6%   10%   13%   16%   20%   25%   29%   33%   37%   40%   43%   47%   49%   53%   56%   60%   64%   68%   72%   78%   81%   85%   86%   88%   92%   98%  100%  
 Determination of the impedances and powers
    0%  100%  
 Calculate the far field
   (FarField1)
   Using standard far field calculations
   Computation of the far field values in the frequency domain
  100%  
   Exporting of the far field values
  100%  
 --- Processing frequency 22 of 150 ( 9.32819E+09 Hz)
 --- Direction of incidence loop: 1 of 3
 Checking the geometrical input data (frequency dependent)
 Ray launching/tracing for RL-GO (all sources)
   16%   32%   46%   61%   76%   91%  100%  
 Determination of the impedances and powers
    0%  100%  
 Calculate the far field
   (FarField1)
   Using standard far field calculations
   Computation of the far field values in the frequency domain
  100%  
   Exporting of the far field values
  100%  
 --- Direction of incidence loop: 2 of 3
 Ray launching/tracing for RL-GO (all sources)
   10%   20%   33%   56%   71%   89%  100%  
 Determination of the impedances and powers
    0%  100%  
 Calculate the far field
   (FarField1)
   Using standard far field calculations
   Computation of the far field values in the frequency domain
  100%  
   Exporting of the far field values
  100%  
 --- Direction of incidence loop: 3 of 3
 Ray launching/tracing for RL-GO (all sources)
    6%   10%   13%   16%   19%   24%   29%   33%   37%   40%   43%   47%   49%   53%   56%   59%   62%   67%   72%   76%   80%   84%   85%   88%   92%   97%  100%  
 Determination of the impedances and powers
    0%  100%  
 Calculate the far field
   (FarField1)
   Using standard far field calculations
   Computation of the far field values in the frequency domain
  100%  
   Exporting of the far field values
  100%  
 --- Processing frequency 23 of 150 ( 9.32953E+09 Hz)
 --- Direction of incidence loop: 1 of 3
 Checking the geometrical input data (frequency dependent)
 Ray launching/tracing for RL-GO (all sources)
   14%   29%   45%   59%   74%   89%  100%  
 Determination of the impedances and powers
    0%  100%  
 Calculate the far field
   (FarField1)
   Using standard far field calculations
   Computation of the far field values in the frequency domain
  100%  
   Exporting of the far field values
  100%  
 --- Direction of incidence loop: 2 of 3
 Ray launching/tracing for RL-GO (all sources)
   11%   20%   33%   55%   71%   89%  100%  
 Determination of the impedances and powers
    0%  100%  
 Calculate the far field
   (FarField1)
   Using standard far field calculations
   Computation of the far field values in the frequency domain
  100%  
   Exporting of the far field values
  100%  
 --- Direction of incidence loop: 3 of 3
 Ray launching/tracing for RL-GO (all sources)
    6%   10%   13%   16%   19%   24%   29%   33%   37%   41%   43%   47%   49%   53%   56%   60%   64%   68%   72%   78%   81%   85%   86%   88%   92%   98%  100%  
 Determination of the impedances and powers
    0%  100%  
 Calculate the far field
   (FarField1)
   Using standard far field calculations
   Computation of the far field values in the frequency domain
  100%  
   Exporting of the far field values
  100%  
 --- Processing frequency 24 of 150 ( 9.33087E+09 Hz)
 --- Direction of incidence loop: 1 of 3
 Checking the geometrical input data (frequency dependent)
 Ray launching/tracing for RL-GO (all sources)
   18%   33%   48%   61%   77%   92%  100%  
 Determination of the impedances and powers
    0%  100%  
 Calculate the far field
   (FarField1)
   Using standard far field calculations
   Computation of the far field values in the frequency domain
  100%  
   Exporting of the far field values
  100%  
 --- Direction of incidence loop: 2 of 3
 Ray launching/tracing for RL-GO (all sources)
   11%   20%   32%   56%   71%   89%  100%  
 Determination of the impedances and powers
    0%  100%  
 Calculate the far field
   (FarField1)
   Using standard far field calculations
   Computation of the far field values in the frequency domain
  100%  
   Exporting of the far field values
  100%  
 --- Direction of incidence loop: 3 of 3
 Ray launching/tracing for RL-GO (all sources)
    6%   10%   13%   16%   19%   24%   29%   33%   37%   40%   43%   47%   49%   53%   56%   59%   62%   67%   72%   76%   81%   84%   85%   88%   92%   97%  100%  
 Determination of the impedances and powers
    0%  100%  
 Calculate the far field
   (FarField1)
   Using standard far field calculations
   Computation of the far field values in the frequency domain
  100%  
   Exporting of the far field values
  100%  
 --- Processing frequency 25 of 150 ( 9.33221E+09 Hz)
 --- Direction of incidence loop: 1 of 3
 Checking the geometrical input data (frequency dependent)
 Ray launching/tracing for RL-GO (all sources)
   18%   33%   48%   61%   77%   92%  100%  
 Determination of the impedances and powers
    0%  100%  
 Calculate the far field
   (FarField1)
   Using standard far field calculations
   Computation of the far field values in the frequency domain
  100%  
   Exporting of the far field values
  100%  
 --- Direction of incidence loop: 2 of 3
 Ray launching/tracing for RL-GO (all sources)
   11%   20%   32%   55%   70%   88%  100%  
 Determination of the impedances and powers
    0%  100%  
 Calculate the far field
   (FarField1)
   Using standard far field calculations
   Computation of the far field values in the frequency domain
  100%  
   Exporting of the far field values
  100%  
 --- Direction of incidence loop: 3 of 3
 Ray launching/tracing for RL-GO (all sources)
    5%   10%   12%   16%   19%   24%   29%   33%   37%   40%   43%   47%   49%   53%   56%   60%   64%   68%   72%   78%   81%   85%   86%   88%   92%   98%  100%  
 Determination of the impedances and powers
    0%  100%  
 Calculate the far field
   (FarField1)
   Using standard far field calculations
   Computation of the far field values in the frequency domain
  100%  
   Exporting of the far field values
  100%  
 --- Processing frequency 26 of 150 ( 9.33356E+09 Hz)
 --- Direction of incidence loop: 1 of 3
 Checking the geometrical input data (frequency dependent)
 Ray launching/tracing for RL-GO (all sources)
   17%   32%   48%   61%   77%   92%  100%  
 Determination of the impedances and powers
    0%  100%  
 Calculate the far field
   (FarField1)
   Using standard far field calculations
   Computation of the far field values in the frequency domain
  100%  
   Exporting of the far field values
  100%  
 --- Direction of incidence loop: 2 of 3
 Ray launching/tracing for RL-GO (all sources)
   10%   20%   32%   55%   71%   89%  100%  
 Determination of the impedances and powers
    0%  100%  
 Calculate the far field
   (FarField1)
   Using standard far field calculations
   Computation of the far field values in the frequency domain
  100%  
   Exporting of the far field values
  100%  
 --- Direction of incidence loop: 3 of 3
 Ray launching/tracing for RL-GO (all sources)
    6%   10%   13%   16%   20%   25%   29%   33%   37%   41%   43%   46%   49%   52%   55%   59%   62%   67%   72%   77%   81%   84%   85%   88%   92%   97%  100%  
 Determination of the impedances and powers
    0%  100%  
 Calculate the far field
   (FarField1)
   Using standard far field calculations
   Computation of the far field values in the frequency domain
  100%  
   Exporting of the far field values
  100%  
 --- Processing frequency 27 of 150 ( 9.33490E+09 Hz)
 --- Direction of incidence loop: 1 of 3
 Checking the geometrical input data (frequency dependent)
 Ray launching/tracing for RL-GO (all sources)
   17%   33%   48%   61%   77%   92%  100%  
 Determination of the impedances and powers
    0%  100%  
 Calculate the far field
   (FarField1)
   Using standard far field calculations
   Computation of the far field values in the frequency domain
  100%  
   Exporting of the far field values
  100%  
 --- Direction of incidence loop: 2 of 3
 Ray launching/tracing for RL-GO (all sources)
   10%   20%   33%   55%   71%   89%  100%  
 Determination of the impedances and powers
    0%  100%  
 Calculate the far field
   (FarField1)
   Using standard far field calculations
   Computation of the far field values in the frequency domain
  100%  
   Exporting of the far field values
  100%  
 --- Direction of incidence loop: 3 of 3
 Ray launching/tracing for RL-GO (all sources)
    6%   11%   13%   16%   20%   25%   29%   33%   37%   41%   45%   48%   51%   55%   58%   61%   66%   71%   75%   80%   84%   85%   88%   92%   97%  100%  
 Determination of the impedances and powers
    0%  100%  
 Calculate the far field
   (FarField1)
   Using standard far field calculations
   Computation of the far field values in the frequency domain
  100%  
   Exporting of the far field values
  100%  
 --- Processing frequency 28 of 150 ( 9.33624E+09 Hz)
 --- Direction of incidence loop: 1 of 3
 Checking the geometrical input data (frequency dependent)
 Ray launching/tracing for RL-GO (all sources)
   18%   33%   48%   61%   77%   92%  100%  
 Determination of the impedances and powers
    0%  100%  
 Calculate the far field
   (FarField1)
   Using standard far field calculations
   Computation of the far field values in the frequency domain
  100%  
   Exporting of the far field values
  100%  
 --- Direction of incidence loop: 2 of 3
 Ray launching/tracing for RL-GO (all sources)
   11%   20%   33%   55%   71%   89%  100%  
 Determination of the impedances and powers
    0%  100%  
 Calculate the far field
   (FarField1)
   Using standard far field calculations
   Computation of the far field values in the frequency domain
  100%  
   Exporting of the far field values
  100%  
 --- Direction of incidence loop: 3 of 3
 Ray launching/tracing for RL-GO (all sources)
    6%   11%   13%   16%   20%   25%   29%   33%   37%   41%   43%   47%   49%   53%   56%   60%   64%   68%   72%   78%   81%   85%   86%   88%   92%   98%  100%  
 Determination of the impedances and powers
    0%  100%  
 Calculate the far field
   (FarField1)
   Using standard far field calculations
   Computation of the far field values in the frequency domain
  100%  
   Exporting of the far field values
  100%  
 --- Processing frequency 29 of 150 ( 9.33758E+09 Hz)
 --- Direction of incidence loop: 1 of 3
 Checking the geometrical input data (frequency dependent)
 Ray launching/tracing for RL-GO (all sources)
   17%   32%   48%   61%   77%   92%  100%  
 Determination of the impedances and powers
    0%  100%  
 Calculate the far field
   (FarField1)
   Using standard far field calculations
   Computation of the far field values in the frequency domain
  100%  
   Exporting of the far field values
  100%  
 --- Direction of incidence loop: 2 of 3
 Ray launching/tracing for RL-GO (all sources)
    7%   19%   27%   51%   67%   84%  100%  
 Determination of the impedances and powers
    0%  100%  
 Calculate the far field
   (FarField1)
   Using standard far field calculations
   Computation of the far field values in the frequency domain
  100%  
   Exporting of the far field values
  100%  
 --- Direction of incidence loop: 3 of 3
 Ray launching/tracing for RL-GO (all sources)
    5%   10%   12%   16%   20%   25%   28%   33%   37%   41%   43%   47%   49%   53%   56%   60%   64%   68%   72%   78%   81%   85%   86%   88%   92%  100%  100%  
 Determination of the impedances and powers
    0%  100%  
 Calculate the far field
   (FarField1)
   Using standard far field calculations
   Computation of the far field values in the frequency domain
  100%  
   Exporting of the far field values
  100%  
 --- Processing frequency 30 of 150 ( 9.33893E+09 Hz)
 --- Direction of incidence loop: 1 of 3
 Checking the geometrical input data (frequency dependent)
 Ray launching/tracing for RL-GO (all sources)
   17%   33%   48%   61%   77%   92%  100%  
 Determination of the impedances and powers
    0%  100%  
 Calculate the far field
   (FarField1)
   Using standard far field calculations
   Computation of the far field values in the frequency domain
  100%  
   Exporting of the far field values
  100%  
 --- Direction of incidence loop: 2 of 3
 Ray launching/tracing for RL-GO (all sources)
   10%   20%   33%   55%   71%   89%  100%  
 Determination of the impedances and powers
    0%  100%  
 Calculate the far field
   (FarField1)
   Using standard far field calculations
   Computation of the far field values in the frequency domain
  100%  
[...]
 Calculate the far field
   (FarField1)
   Using standard far field calculations
   Computation of the far field values in the frequency domain
  100%  
   Exporting of the far field values
  100%  
 --- Direction of incidence loop: 3 of 3
 Ray launching/tracing for RL-GO (all sources)
    6%   11%   14%   16%   19%   24%   27%   31%   34%   38%   42%   45%   49%   52%   55%   59%   63%   66%   69%   74%   78%   83%   86%   89%   94%  100%  
 Determination of the impedances and powers
    0%  100%  
 Calculate the far field
   (FarField1)
   Using standard far field calculations
   Computation of the far field values in the frequency domain
  100%  
   Exporting of the far field values
  100%  
 --- Processing frequency 140 of 150 ( 9.48658E+09 Hz)
 --- Direction of incidence loop: 1 of 3
 Checking the geometrical input data (frequency dependent)
 Ray launching/tracing for RL-GO (all sources)
   16%   32%   44%   58%   71%   86%  100%  
 Determination of the impedances and powers
    0%  100%  
 Calculate the far field
   (FarField1)
   Using standard far field calculations
   Computation of the far field values in the frequency domain
  100%  
   Exporting of the far field values
  100%  
 --- Direction of incidence loop: 2 of 3
 Ray launching/tracing for RL-GO (all sources)
   10%   19%   30%   45%   63%   78%   90%  100%  
 Determination of the impedances and powers
    0%  100%  
 Calculate the far field
   (FarField1)
   Using standard far field calculations
   Computation of the far field values in the frequency domain
  100%  
   Exporting of the far field values
  100%  
 --- Direction of incidence loop: 3 of 3
 Ray launching/tracing for RL-GO (all sources)
    6%   11%   13%   15%   19%   24%   26%   31%   34%   38%   42%   45%   49%   52%   56%   59%   63%   67%   71%   74%   79%   84%   86%   89%   92%   97%  100%  
 Determination of the impedances and powers
    0%  100%  
 Calculate the far field
   (FarField1)
   Using standard far field calculations
   Computation of the far field values in the frequency domain
  100%  
   Exporting of the far field values
  100%  
 --- Processing frequency 141 of 150 ( 9.48792E+09 Hz)
 --- Direction of incidence loop: 1 of 3
 Checking the geometrical input data (frequency dependent)
 Ray launching/tracing for RL-GO (all sources)
   16%   32%   44%   58%   71%   86%  100%  
 Determination of the impedances and powers
    0%  100%  
 Calculate the far field
   (FarField1)
   Using standard far field calculations
   Computation of the far field values in the frequency domain
  100%  
   Exporting of the far field values
  100%  
 --- Direction of incidence loop: 2 of 3
 Ray launching/tracing for RL-GO (all sources)
   10%   18%   30%   45%   62%   77%   90%  100%  
 Determination of the impedances and powers
    0%  100%  
 Calculate the far field
   (FarField1)
   Using standard far field calculations
   Computation of the far field values in the frequency domain
  100%  
   Exporting of the far field values
  100%  
 --- Direction of incidence loop: 3 of 3
 Ray launching/tracing for RL-GO (all sources)
    6%   10%   13%   15%   19%   24%   28%   32%   35%   39%   43%   46%   49%   52%   56%   59%   63%   67%   71%   74%   79%   83%   86%   89%   92%  100%  
 Determination of the impedances and powers
    0%  100%  
 Calculate the far field
   (FarField1)
   Using standard far field calculations
   Computation of the far field values in the frequency domain
  100%  
   Exporting of the far field values
  100%  
 --- Processing frequency 142 of 150 ( 9.48926E+09 Hz)
 --- Direction of incidence loop: 1 of 3
 Checking the geometrical input data (frequency dependent)
 Ray launching/tracing for RL-GO (all sources)
   15%   31%   43%   57%   69%   85%  100%  
 Determination of the impedances and powers
    0%  100%  
 Calculate the far field
   (FarField1)
   Using standard far field calculations
   Computation of the far field values in the frequency domain
  100%  
   Exporting of the far field values
  100%  
 --- Direction of incidence loop: 2 of 3
 Ray launching/tracing for RL-GO (all sources)
   10%   18%   30%   45%   62%   77%   90%  100%  
 Determination of the impedances and powers
    0%  100%  
 Calculate the far field
   (FarField1)
   Using standard far field calculations
   Computation of the far field values in the frequency domain
  100%  
   Exporting of the far field values
  100%  
 --- Direction of incidence loop: 3 of 3
 Ray launching/tracing for RL-GO (all sources)
    6%   10%   13%   15%   19%   24%   28%   31%   35%   38%   42%   46%   49%   52%   55%   59%   62%   66%   70%   73%   78%   82%   85%   89%   92%  100%  
 Determination of the impedances and powers
    0%  100%  
 Calculate the far field
   (FarField1)
   Using standard far field calculations
   Computation of the far field values in the frequency domain
  100%  
   Exporting of the far field values
  100%  
 --- Processing frequency 143 of 150 ( 9.49060E+09 Hz)
 --- Direction of incidence loop: 1 of 3
 Checking the geometrical input data (frequency dependent)
 Ray launching/tracing for RL-GO (all sources)
   16%   32%   44%   58%   71%   86%  100%  
 Determination of the impedances and powers
    0%  100%  
 Calculate the far field
   (FarField1)
   Using standard far field calculations
   Computation of the far field values in the frequency domain
  100%  
   Exporting of the far field values
  100%  
 --- Direction of incidence loop: 2 of 3
 Ray launching/tracing for RL-GO (all sources)
    9%   18%   29%   45%   62%   76%   89%  100%  
 Determination of the impedances and powers
    0%  100%  
 Calculate the far field
   (FarField1)
   Using standard far field calculations
   Computation of the far field values in the frequency domain
  100%  
   Exporting of the far field values
  100%  
 --- Direction of incidence loop: 3 of 3
 Ray launching/tracing for RL-GO (all sources)
    6%   11%   13%   15%   19%   24%   28%   31%   34%   38%   41%   45%   49%   51%   55%   59%   62%   66%   70%   73%   78%   82%   85%   89%   92%  100%  
 Determination of the impedances and powers
    0%  100%  
 Calculate the far field
   (FarField1)
   Using standard far field calculations
   Computation of the far field values in the frequency domain
  100%  
   Exporting of the far field values
  100%  
 --- Processing frequency 144 of 150 ( 9.49195E+09 Hz)
 --- Direction of incidence loop: 1 of 3
 Checking the geometrical input data (frequency dependent)
 Ray launching/tracing for RL-GO (all sources)
   17%   32%   45%   59%   72%   87%  100%  
 Determination of the impedances and powers
    0%  100%  
 Calculate the far field
   (FarField1)
   Using standard far field calculations
   Computation of the far field values in the frequency domain
  100%  
   Exporting of the far field values
  100%  
 --- Direction of incidence loop: 2 of 3
 Ray launching/tracing for RL-GO (all sources)
   10%   18%   30%   45%   62%   77%   90%  100%  
 Determination of the impedances and powers
    0%  100%  
 Calculate the far field
   (FarField1)
   Using standard far field calculations
   Computation of the far field values in the frequency domain
  100%  
   Exporting of the far field values
  100%  
 --- Direction of incidence loop: 3 of 3
 Ray launching/tracing for RL-GO (all sources)
    6%   11%   13%   16%   20%   25%   29%   32%   36%   40%   44%   47%   50%   53%   57%   61%   64%   68%   72%   75%   80%   84%   87%   90%   93%  100%  
 Determination of the impedances and powers
    0%  100%  
 Calculate the far field
   (FarField1)
   Using standard far field calculations
   Computation of the far field values in the frequency domain
  100%  
   Exporting of the far field values
  100%  
 --- Processing frequency 145 of 150 ( 9.49329E+09 Hz)
 --- Direction of incidence loop: 1 of 3
 Checking the geometrical input data (frequency dependent)
 Ray launching/tracing for RL-GO (all sources)
   16%   32%   44%   58%   71%   86%  100%  
 Determination of the impedances and powers
    0%  100%  
 Calculate the far field
   (FarField1)
   Using standard far field calculations
   Computation of the far field values in the frequency domain
  100%  
   Exporting of the far field values
  100%  
 --- Direction of incidence loop: 2 of 3
 Ray launching/tracing for RL-GO (all sources)
    9%   18%   30%   45%   61%   75%   89%  100%  
 Determination of the impedances and powers
    0%  100%  
 Calculate the far field
   (FarField1)
   Using standard far field calculations
   Computation of the far field values in the frequency domain
  100%  
   Exporting of the far field values
  100%  
 --- Direction of incidence loop: 3 of 3
 Ray launching/tracing for RL-GO (all sources)
    6%   11%   13%   15%   19%   24%   28%   32%   35%   39%   43%   46%   49%   51%   55%   57%   61%   64%   68%   72%   76%   80%   84%   87%   90%   93%  100%  
 Determination of the impedances and powers
    0%  100%  
 Calculate the far field
   (FarField1)
   Using standard far field calculations
   Computation of the far field values in the frequency domain
  100%  
   Exporting of the far field values
  100%  
 --- Processing frequency 146 of 150 ( 9.49463E+09 Hz)
 --- Direction of incidence loop: 1 of 3
 Checking the geometrical input data (frequency dependent)
 Ray launching/tracing for RL-GO (all sources)
   16%   28%   41%   55%   67%   83%   97%  100%  
 Determination of the impedances and powers
    0%  100%  
 Calculate the far field
   (FarField1)
   Using standard far field calculations
   Computation of the far field values in the frequency domain
  100%  
   Exporting of the far field values
  100%  
 --- Direction of incidence loop: 2 of 3
 Ray launching/tracing for RL-GO (all sources)
   10%   18%   30%   45%   62%   77%   90%  100%  
 Determination of the impedances and powers
    0%  100%  
 Calculate the far field
   (FarField1)
   Using standard far field calculations
   Computation of the far field values in the frequency domain
  100%  
   Exporting of the far field values
  100%  
 --- Direction of incidence loop: 3 of 3
 Ray launching/tracing for RL-GO (all sources)
    6%   11%   13%   16%   20%   25%   29%   32%   36%   39%   43%   46%   49%   52%   57%   60%   64%   67%   71%   74%   79%   83%   86%   89%   92%  100%  
 Determination of the impedances and powers
    0%  100%  
 Calculate the far field
   (FarField1)
   Using standard far field calculations
   Computation of the far field values in the frequency domain
  100%  
   Exporting of the far field values
  100%  
 --- Processing frequency 147 of 150 ( 9.49597E+09 Hz)
 --- Direction of incidence loop: 1 of 3
 Checking the geometrical input data (frequency dependent)
 Ray launching/tracing for RL-GO (all sources)
   15%   31%   43%   58%   70%   85%  100%  
 Determination of the impedances and powers
    0%  100%  
 Calculate the far field
   (FarField1)
   Using standard far field calculations
   Computation of the far field values in the frequency domain
  100%  
   Exporting of the far field values
  100%  
 --- Direction of incidence loop: 2 of 3
 Ray launching/tracing for RL-GO (all sources)
    9%   18%   30%   45%   62%   77%   90%  100%  
 Determination of the impedances and powers
    0%  100%  
 Calculate the far field
   (FarField1)
   Using standard far field calculations
   Computation of the far field values in the frequency domain
  100%  
   Exporting of the far field values
  100%  
 --- Direction of incidence loop: 3 of 3
 Ray launching/tracing for RL-GO (all sources)
    6%   11%   13%   16%   20%   25%   29%   32%   36%   40%   44%   47%   50%   53%   57%   61%   64%   68%   72%   76%   80%   84%   87%   89%   93%  100%  
 Determination of the impedances and powers
    0%  100%  
 Calculate the far field
   (FarField1)
   Using standard far field calculations
   Computation of the far field values in the frequency domain
  100%  
   Exporting of the far field values
  100%  
 --- Processing frequency 148 of 150 ( 9.49732E+09 Hz)
 --- Direction of incidence loop: 1 of 3
 Checking the geometrical input data (frequency dependent)
 Ray launching/tracing for RL-GO (all sources)
   16%   32%   44%   58%   71%   86%  100%  
 Determination of the impedances and powers
    0%  100%  
 Calculate the far field
   (FarField1)
   Using standard far field calculations
   Computation of the far field values in the frequency domain
  100%  
   Exporting of the far field values
  100%  
 --- Direction of incidence loop: 2 of 3
 Ray launching/tracing for RL-GO (all sources)
    5%   14%   23%   39%   54%   70%   84%   99%  100%  
 Determination of the impedances and powers
    0%  100%  
 Calculate the far field
   (FarField1)
   Using standard far field calculations
   Computation of the far field values in the frequency domain
  100%  
   Exporting of the far field values
  100%  
 --- Direction of incidence loop: 3 of 3
 Ray launching/tracing for RL-GO (all sources)
    6%   11%   13%   16%   20%   25%   29%   31%   34%   38%   42%   45%   49%   51%   54%   58%   61%   65%   69%   73%   78%   82%   85%   89%   92%  100%  
 Determination of the impedances and powers
    0%  100%  
 Calculate the far field
   (FarField1)
   Using standard far field calculations
   Computation of the far field values in the frequency domain
  100%  
   Exporting of the far field values
  100%  
 --- Processing frequency 149 of 150 ( 9.49866E+09 Hz)
 --- Direction of incidence loop: 1 of 3
 Checking the geometrical input data (frequency dependent)
 Ray launching/tracing for RL-GO (all sources)
   16%   32%   45%   58%   71%   86%  100%  
 Determination of the impedances and powers
    0%  100%  
 Calculate the far field
   (FarField1)
   Using standard far field calculations
   Computation of the far field values in the frequency domain
  100%  
   Exporting of the far field values
  100%  
 --- Direction of incidence loop: 2 of 3
 Ray launching/tracing for RL-GO (all sources)
    9%   18%   30%   45%   62%   77%   90%  100%  
 Determination of the impedances and powers
    0%  100%  
 Calculate the far field
   (FarField1)
   Using standard far field calculations
   Computation of the far field values in the frequency domain
  100%  
   Exporting of the far field values
  100%  
 --- Direction of incidence loop: 3 of 3
 Ray launching/tracing for RL-GO (all sources)
    6%   11%   13%   15%   19%   24%   28%   32%   35%   39%   43%   46%   49%   52%   56%   59%   63%   67%   71%   74%   79%   83%   86%   89%   92%  100%  
 Determination of the impedances and powers
    0%  100%  
 Calculate the far field
   (FarField1)
   Using standard far field calculations
   Computation of the far field values in the frequency domain
  100%  
   Exporting of the far field values
  100%  
 --- Processing frequency 150 of 150 ( 9.50000E+09 Hz)
 --- Direction of incidence loop: 1 of 3
 Checking the geometrical input data (frequency dependent)
 Ray launching/tracing for RL-GO (all sources)
   16%   32%   44%   58%   71%   86%  100%  
 Determination of the impedances and powers
    0%  100%  
 Calculate the far field
   (FarField1)
   Using standard far field calculations
   Computation of the far field values in the frequency domain
  100%  
   Exporting of the far field values
  100%  
 --- Direction of incidence loop: 2 of 3
 Ray launching/tracing for RL-GO (all sources)
    8%   18%   28%   43%   60%   75%   89%  100%  
 Determination of the impedances and powers
    0%  100%  
 Calculate the far field
   (FarField1)
   Using standard far field calculations
   Computation of the far field values in the frequency domain
  100%  
   Exporting of the far field values
  100%  
 --- Direction of incidence loop: 3 of 3
 Ray launching/tracing for RL-GO (all sources)
    6%   11%   13%   15%   19%   24%   28%   31%   34%   38%   42%   46%   49%   52%   56%   59%   63%   67%   71%   74%   79%   83%   86%   89%   93%  100%  
 Determination of the impedances and powers
    0%  100%  
 Calculate the far field
   (FarField1)
   Using standard far field calculations
   Computation of the far field values in the frequency domain
  100%  
   Exporting of the far field values
  100%  

Finished


PS:

Read file <7673544.output> for stderr output of this job.

