Sender: LSF System <lsfadmin@b2058>
Subject: Job 7673546: <2-boatSea-0du-2L-modelMesh-hrrp-lowphi-beside> in cluster <magiccube3> Done

Job <2-boatSea-0du-2L-modelMesh-hrrp-lowphi-beside> was submitted from host <ln06> by user <tshu008> in cluster <magiccube3> at Fri Apr 26 23:01:01 2024
Job was executed on host(s) <32*b2058>, in queue <LS-DYNA>, as user <tshu008> in cluster <magiccube3> at Sun Apr 28 11:54:41 2024
                            <32*b2033>
                            <32*b2045>
                            <32*b2031>
                            <32*b2025>
                            <32*b2074>
                            <32*b2067>
                            <32*b2041>
</public/home/users/tshu008> was used as the home directory.
</public/home/users/tshu008/czh> was used as the working directory.
Started at Sun Apr 28 11:54:41 2024
Terminated at Mon Apr 29 07:25:02 2024
Results reported at Mon Apr 29 07:25:02 2024

Your job looked like:

------------------------------------------------------------
# LSBATCH: User input

#!/bin/bash
#BSUB -q snode
#BSUB -n 256
#BSUB -R "span[ptile=32]"
#BSUB -J 2-boatSea-0du-2L-modelMesh-hrrp-lowphi-beside
#BSUB -eo %J.output

CURDIR=$PWD
cd $CURDIR

APP_NAME=esource
NP=256
NP_PER_NODE=16
RUN="RAW"


#Create nodelist

rm -f nodelist
touch nodelist

#start creating .nodelist
for i in `echo $LSB_HOSTS`
do
echo $i >> $PWD/nodelist
done
NP=`cat $PWD/nodelist|wc -w`

NODELIST=""
for i in `cat $PWD/nodelist | sort | uniq`
do
NUM_PROC=`cat $PWD/nodelist | grep $i | wc -l`
if [ "$NODELIST" = "" ]; then
   NODELIST="['$i',$NUM_PROC]"
else
   NODELIST="$NODELIST,['$i',$NUM_PROC]"
fi
done

echo "NODELIST is $NODELIST"

export PATH=/public/home/users/tshu008/software/altair/feko/bin/:/public/home/users/hpcplusadmin1/h:/public/ibm/lsf10/10.1/linux3.10-glibc2.17-x86_64/etc:/public/ibm/lsf10/10.1/linux3.10-glibc2.17-x86_64/bin:/usr/lib64/qt-3.3/bin:/public/home/users/tshu008/perl5/bin:/opt/clusconf/bin:/usr/bin:/bin:/usr/sbin:/sbin:/usr/local/openssh/bin:/usr/local/sbin:/public/home/users/tshu008/.local/bin:/public/home/users/tshu008/bin
runfeko 2-boatSea-0du-2L-modelMesh-hrrp-lowphi-beside -np 256 --machines-file $LSB_DJOB_HOSTFILE



------------------------------------------------------------

Successfully completed.

Resource usage summary:

    CPU time :                                   2236374.75 sec.
    Max Memory :                                 2859 MB
    Average Memory :                             2855.90 MB
    Total Requested Memory :                     -
    Delta Memory :                               -
    Max Swap :                                   133 MB
    Max Processes :                              49
    Max Threads :                                59
    Run time :                                   70221 sec.
    Turnaround time :                            203041 sec.

The output (if any) follows:

NODELIST is ['b2025',32],['b2031',32],['b2033',32],['b2041',32],['b2045',32],['b2058',32],['b2067',32],['b2074',32]

RUNFEKO Version 2017.1-14 from 2016-11-25
        Copyright (c) 1999-2014 Altair Development S.A. (Pty) Ltd
        Copyright (c) 2014-2017 Altair Engineering, Inc.

NOTE: Running CADFEKO_BATCH since file "2-boatSea-0du-2L-modelMesh-hrrp-lowphi-beside.pre" not found

CADFEKO_BATCH Version 2017.1-300391 (x64) from 2017-03-15
          Copyright (c) 1999-2014 Altair Development S.A. (Pty) Ltd
          Copyright (c) 2014-2017 Altair Engineering, Inc.

Loading mesh entities...... 50%100%
Building connectivity map......100%100%
Loading mesh entities...... 50%100%
Building connectivity map......100%100%
Warning 16097: 'MeshImport' has not been remeshed because it is being used as the simulation mesh.
Warning 16097: 'MeshImport_1' has not been remeshed because it is being used as the simulation mesh.
Mesh has been generated:
 112567 triangles
_ 50%100%100%
Saving MeshImport_1... 50%100%100%
Saving cfm file...... 50%100%100%
Saving geometry......100%100%
NOTE: Running PREFEKO since file "2-boatSea-0du-2L-modelMesh-hrrp-lowphi-beside.fek" not found

PREFEKO Version 2017.1-34 from 2017-02-06
        Copyright (c) 1999-2014 Altair Development S.A. (Pty) Ltd
        Copyright (c) 2014-2017 Altair Engineering, Inc.


Creating file 2-boatSea-0du-2L-modelMesh-hrrp-lowphi-beside.fek, please be patient ...
File 2-boatSea-0du-2L-modelMesh-hrrp-lowphi-beside.fek has been created:
 112567 metallic triangles in free space

 

FEKO.CSV  Version 2017.1-403 from 2017-03-14
          Copyright (c) 1999-2014 Altair Development S.A. (Pty) Ltd
          Copyright (c) 2014-2017 Altair Engineering, Inc.

File:     2-boatSea-0du-2L-modelMesh-hrrp-lowphi-beside
Memory:   Unlimited, system allows maximum usage of 5.851 GByte
          (for parallel runs memory limit is per process)
          (installed memory 187.413 GByte, thereof free 178.016 GByte)

---> Process    1 of 256 active on b2058                       (PID:    38636) using 1 threads
---> Process    0 of 256 active on b2058                       (PID:    38635) using 1 threads
---> Process   65 of 256 active on b2045                       (PID:    55410) using 1 threads
---> Process   64 of 256 active on b2045                       (PID:    55409) using 1 threads
---> Process  136 of 256 active on b2025                       (PID:   176985) using 1 threads
---> Process  128 of 256 active on b2025                       (PID:   176977) using 1 threads
---> Process  164 of 256 active on b2074                       (PID:    22609) using 1 threads
---> Process  168 of 256 active on b2074                       (PID:    22613) using 1 threads
---> Process   40 of 256 active on b2033                       (PID:    16195) using 1 threads
---> Process   70 of 256 active on b2045                       (PID:    55415) using 1 threads
---> Process   68 of 256 active on b2045                       (PID:    55413) using 1 threads
---> Process  200 of 256 active on b2067                       (PID:   192774) using 1 threads
---> Process   97 of 256 active on b2031                       (PID:   227329) using 1 threads
---> Process  132 of 256 active on b2025                       (PID:   176981) using 1 threads
---> Process   33 of 256 active on b2033                       (PID:    16188) using 1 threads
---> Process  160 of 256 active on b2074                       (PID:    22605) using 1 threads
---> Process   69 of 256 active on b2045                       (PID:    55414) using 1 threads
---> Process  204 of 256 active on b2067                       (PID:   192778) using 1 threads
---> Process  144 of 256 active on b2025                       (PID:   176993) using 1 threads
---> Process   41 of 256 active on b2033                       (PID:    16196) using 1 threads
---> Process  176 of 256 active on b2074                       (PID:    22621) using 1 threads
---> Process  202 of 256 active on b2067                       (PID:   192776) using 1 threads
---> Process  225 of 256 active on b2041                       (PID:    28188) using 1 threads
---> Process  104 of 256 active on b2031                       (PID:   227336) using 1 threads
---> Process   48 of 256 active on b2033                       (PID:    16203) using 1 threads
---> Process  178 of 256 active on b2074                       (PID:    22623) using 1 threads
---> Process   72 of 256 active on b2045                       (PID:    55417) using 1 threads
---> Process  192 of 256 active on b2067                       (PID:   192766) using 1 threads
---> Process  228 of 256 active on b2041                       (PID:    28191) using 1 threads
---> Process  112 of 256 active on b2031                       (PID:   227344) using 1 threads
---> Process  129 of 256 active on b2025                       (PID:   176978) using 1 threads
---> Process    2 of 256 active on b2058                       (PID:    38637) using 1 threads
---> Process  205 of 256 active on b2067                       (PID:   192779) using 1 threads
---> Process  224 of 256 active on b2041                       (PID:    28187) using 1 threads
---> Process  100 of 256 active on b2031                       (PID:   227332) using 1 threads
---> Process  130 of 256 active on b2025                       (PID:   176979) using 1 threads
---> Process    3 of 256 active on b2058                       (PID:    38638) using 1 threads
---> Process   32 of 256 active on b2033                       (PID:    16187) using 1 threads
---> Process  177 of 256 active on b2074                       (PID:    22622) using 1 threads
---> Process   71 of 256 active on b2045                       (PID:    55416) using 1 threads
---> Process  226 of 256 active on b2041                       (PID:    28189) using 1 threads
---> Process  105 of 256 active on b2031                       (PID:   227337) using 1 threads
---> Process  137 of 256 active on b2025                       (PID:   176986) using 1 threads
---> Process   17 of 256 active on b2058                       (PID:    38652) using 1 threads
---> Process   35 of 256 active on b2033                       (PID:    16190) using 1 threads
---> Process  170 of 256 active on b2074                       (PID:    22615) using 1 threads
---> Process   81 of 256 active on b2045                       (PID:    55426) using 1 threads
---> Process  206 of 256 active on b2067                       (PID:   192780) using 1 threads
---> Process  229 of 256 active on b2041                       (PID:    28192) using 1 threads
---> Process   96 of 256 active on b2031                       (PID:   227328) using 1 threads
---> Process  133 of 256 active on b2025                       (PID:   176982) using 1 threads
---> Process   16 of 256 active on b2058                       (PID:    38651) using 1 threads
---> Process   52 of 256 active on b2033                       (PID:    16207) using 1 threads
---> Process  161 of 256 active on b2074                       (PID:    22606) using 1 threads
---> Process   66 of 256 active on b2045                       (PID:    55411) using 1 threads
---> Process  201 of 256 active on b2067                       (PID:   192775) using 1 threads
---> Process  230 of 256 active on b2041                       (PID:    28193) using 1 threads
---> Process  108 of 256 active on b2031                       (PID:   227340) using 1 threads
---> Process  140 of 256 active on b2025                       (PID:   176989) using 1 threads
---> Process    8 of 256 active on b2058                       (PID:    38643) using 1 threads
---> Process   53 of 256 active on b2033                       (PID:    16208) using 1 threads
---> Process  184 of 256 active on b2074                       (PID:    22629) using 1 threads
---> Process   80 of 256 active on b2045                       (PID:    55425) using 1 threads
---> Process  203 of 256 active on b2067                       (PID:   192777) using 1 threads
---> Process  232 of 256 active on b2041                       (PID:    28195) using 1 threads
---> Process  106 of 256 active on b2031                       (PID:   227338) using 1 threads
---> Process  145 of 256 active on b2025                       (PID:   176994) using 1 threads
---> Process   18 of 256 active on b2058                       (PID:    38653) using 1 threads
---> Process   42 of 256 active on b2033                       (PID:    16197) using 1 threads
---> Process  172 of 256 active on b2074                       (PID:    22617) using 1 threads
---> Process   75 of 256 active on b2045                       (PID:    55420) using 1 threads
---> Process  196 of 256 active on b2067                       (PID:   192770) using 1 threads
---> Process  227 of 256 active on b2041                       (PID:    28190) using 1 threads
---> Process   98 of 256 active on b2031                       (PID:   227330) using 1 threads
---> Process  148 of 256 active on b2025                       (PID:   176997) using 1 threads
---> Process   24 of 256 active on b2058                       (PID:    38659) using 1 threads
---> Process   45 of 256 active on b2033                       (PID:    16200) using 1 threads
---> Process  180 of 256 active on b2074                       (PID:    22625) using 1 threads
---> Process   67 of 256 active on b2045                       (PID:    55412) using 1 threads
---> Process  208 of 256 active on b2067                       (PID:   192782) using 1 threads
---> Process  233 of 256 active on b2041                       (PID:    28196) using 1 threads
---> Process  113 of 256 active on b2031                       (PID:   227345) using 1 threads
---> Process  134 of 256 active on b2025                       (PID:   176983) using 1 threads
---> Process    4 of 256 active on b2058                       (PID:    38639) using 1 threads
---> Process   34 of 256 active on b2033                       (PID:    16189) using 1 threads
---> Process  173 of 256 active on b2074                       (PID:    22618) using 1 threads
---> Process   88 of 256 active on b2045                       (PID:    55433) using 1 threads
---> Process  197 of 256 active on b2067                       (PID:   192771) using 1 threads
---> Process  240 of 256 active on b2041                       (PID:    28203) using 1 threads
---> Process  120 of 256 active on b2031                       (PID:   227353) using 1 threads
---> Process  146 of 256 active on b2025                       (PID:   176995) using 1 threads
---> Process   20 of 256 active on b2058                       (PID:    38655) using 1 threads
---> Process   60 of 256 active on b2033                       (PID:    16215) using 1 threads
---> Process  169 of 256 active on b2074                       (PID:    22614) using 1 threads
---> Process   90 of 256 active on b2045                       (PID:    55435) using 1 threads
---> Process  193 of 256 active on b2067                       (PID:   192767) using 1 threads
---> Process  236 of 256 active on b2041                       (PID:    28199) using 1 threads
---> Process  116 of 256 active on b2031                       (PID:   227348) using 1 threads
---> Process  131 of 256 active on b2025                       (PID:   176980) using 1 threads
---> Process    6 of 256 active on b2058                       (PID:    38641) using 1 threads
---> Process   57 of 256 active on b2033                       (PID:    16212) using 1 threads
---> Process  182 of 256 active on b2074                       (PID:    22627) using 1 threads
---> Process   78 of 256 active on b2045                       (PID:    55423) using 1 threads
---> Process  207 of 256 active on b2067                       (PID:   192781) using 1 threads
---> Process  234 of 256 active on b2041                       (PID:    28197) using 1 threads
---> Process  102 of 256 active on b2031                       (PID:   227334) using 1 threads
---> Process  138 of 256 active on b2025                       (PID:   176987) using 1 threads
---> Process   19 of 256 active on b2058                       (PID:    38654) using 1 threads
---> Process   44 of 256 active on b2033                       (PID:    16199) using 1 threads
---> Process  162 of 256 active on b2074                       (PID:    22607) using 1 threads
---> Process   82 of 256 active on b2045                       (PID:    55427) using 1 threads
---> Process  198 of 256 active on b2067                       (PID:   192772) using 1 threads
---> Process  231 of 256 active on b2041                       (PID:    28194) using 1 threads
---> Process  101 of 256 active on b2031                       (PID:   227333) using 1 threads
---> Process  152 of 256 active on b2025                       (PID:   177001) using 1 threads
---> Process   14 of 256 active on b2058                       (PID:    38649) using 1 threads
---> Process   36 of 256 active on b2033                       (PID:    16191) using 1 threads
---> Process  165 of 256 active on b2074                       (PID:    22610) using 1 threads
---> Process   84 of 256 active on b2045                       (PID:    55429) using 1 threads
---> Process  211 of 256 active on b2067                       (PID:   192785) using 1 threads
---> Process  241 of 256 active on b2041                       (PID:    28204) using 1 threads
---> Process  122 of 256 active on b2031                       (PID:   227355) using 1 threads
---> Process  141 of 256 active on b2025                       (PID:   176990) using 1 threads
---> Process    7 of 256 active on b2058                       (PID:    38642) using 1 threads
---> Process   38 of 256 active on b2033                       (PID:    16193) using 1 threads
---> Process  166 of 256 active on b2074                       (PID:    22611) using 1 threads
---> Process   92 of 256 active on b2045                       (PID:    55437) using 1 threads
---> Process  216 of 256 active on b2067                       (PID:   192790) using 1 threads
---> Process  248 of 256 active on b2041                       (PID:    28211) using 1 threads
---> Process  107 of 256 active on b2031                       (PID:   227339) using 1 threads
---> Process  142 of 256 active on b2025                       (PID:   176991) using 1 threads
---> Process   22 of 256 active on b2058                       (PID:    38657) using 1 threads
---> Process   56 of 256 active on b2033                       (PID:    16211) using 1 threads
---> Process  186 of 256 active on b2074                       (PID:    22631) using 1 threads
---> Process   73 of 256 active on b2045                       (PID:    55418) using 1 threads
---> Process  194 of 256 active on b2067                       (PID:   192768) using 1 threads
---> Process  242 of 256 active on b2041                       (PID:    28205) using 1 threads
---> Process  109 of 256 active on b2031                       (PID:   227341) using 1 threads
---> Process  149 of 256 active on b2025                       (PID:   176998) using 1 threads
---> Process   23 of 256 active on b2058                       (PID:    38658) using 1 threads
---> Process   62 of 256 active on b2033                       (PID:    16217) using 1 threads
---> Process  188 of 256 active on b2074                       (PID:    22633) using 1 threads
---> Process   74 of 256 active on b2045                       (PID:    55419) using 1 threads
---> Process  210 of 256 active on b2067                       (PID:   192784) using 1 threads
---> Process  237 of 256 active on b2041                       (PID:    28200) using 1 threads
---> Process   99 of 256 active on b2031                       (PID:   227331) using 1 threads
---> Process  159 of 256 active on b2025                       (PID:   177008) using 1 threads
---> Process   12 of 256 active on b2058                       (PID:    38647) using 1 threads
---> Process   49 of 256 active on b2033                       (PID:    16204) using 1 threads
---> Process  179 of 256 active on b2074                       (PID:    22624) using 1 threads
---> Process   79 of 256 active on b2045                       (PID:    55424) using 1 threads
---> Process  212 of 256 active on b2067                       (PID:   192786) using 1 threads
---> Process  238 of 256 active on b2041                       (PID:    28201) using 1 threads
---> Process  124 of 256 active on b2031                       (PID:   227357) using 1 threads
---> Process  135 of 256 active on b2025                       (PID:   176984) using 1 threads
---> Process   15 of 256 active on b2058                       (PID:    38650) using 1 threads
---> Process   50 of 256 active on b2033                       (PID:    16205) using 1 threads
---> Process  171 of 256 active on b2074                       (PID:    22616) using 1 threads
---> Process   76 of 256 active on b2045                       (PID:    55421) using 1 threads
---> Process  195 of 256 active on b2067                       (PID:   192769) using 1 threads
---> Process  235 of 256 active on b2041                       (PID:    28198) using 1 threads
---> Process  114 of 256 active on b2031                       (PID:   227346) using 1 threads
---> Process  139 of 256 active on b2025                       (PID:   176988) using 1 threads
---> Process   28 of 256 active on b2058                       (PID:    38663) using 1 threads
---> Process   58 of 256 active on b2033                       (PID:    16213) using 1 threads
---> Process  174 of 256 active on b2074                       (PID:    22619) using 1 threads
---> Process   91 of 256 active on b2045                       (PID:    55436) using 1 threads
---> Process  199 of 256 active on b2067                       (PID:   192773) using 1 threads
---> Process  246 of 256 active on b2041                       (PID:    28209) using 1 threads
---> Process  121 of 256 active on b2031                       (PID:   227354) using 1 threads
---> Process  147 of 256 active on b2025                       (PID:   176996) using 1 threads
---> Process   30 of 256 active on b2058                       (PID:    38665) using 1 threads
---> Process   61 of 256 active on b2033                       (PID:    16216) using 1 threads
---> Process  185 of 256 active on b2074                       (PID:    22630) using 1 threads
---> Process   89 of 256 active on b2045                       (PID:    55434) using 1 threads
---> Process  217 of 256 active on b2067                       (PID:   192791) using 1 threads
---> Process  252 of 256 active on b2041                       (PID:    28215) using 1 threads
---> Process  110 of 256 active on b2031                       (PID:   227342) using 1 threads
---> Process  156 of 256 active on b2025                       (PID:   177005) using 1 threads
---> Process   29 of 256 active on b2058                       (PID:    38664) using 1 threads
---> Process   43 of 256 active on b2033                       (PID:    16198) using 1 threads
---> Process  181 of 256 active on b2074                       (PID:    22626) using 1 threads
---> Process   77 of 256 active on b2045                       (PID:    55422) using 1 threads
---> Process  213 of 256 active on b2067                       (PID:   192787) using 1 threads
---> Process  244 of 256 active on b2041                       (PID:    28207) using 1 threads
---> Process  117 of 256 active on b2031                       (PID:   227350) using 1 threads
---> Process  154 of 256 active on b2025                       (PID:   177003) using 1 threads
---> Process   13 of 256 active on b2058                       (PID:    38648) using 1 threads
---> Process   63 of 256 active on b2033                       (PID:    16218) using 1 threads
---> Process  163 of 256 active on b2074                       (PID:    22608) using 1 threads
---> Process   94 of 256 active on b2045                       (PID:    55439) using 1 threads
---> Process  209 of 256 active on b2067                       (PID:   192783) using 1 threads
---> Process  249 of 256 active on b2041                       (PID:    28212) using 1 threads
---> Process  118 of 256 active on b2031                       (PID:   227351) using 1 threads
---> Process  151 of 256 active on b2025                       (PID:   177000) using 1 threads
---> Process   31 of 256 active on b2058                       (PID:    38666) using 1 threads
---> Process   37 of 256 active on b2033                       (PID:    16192) using 1 threads
---> Process  175 of 256 active on b2074                       (PID:    22620) using 1 threads
---> Process   85 of 256 active on b2045                       (PID:    55430) using 1 threads
---> Process  214 of 256 active on b2067                       (PID:   192788) using 1 threads
---> Process  250 of 256 active on b2041                       (PID:    28213) using 1 threads
---> Process  103 of 256 active on b2031                       (PID:   227335) using 1 threads
---> Process  158 of 256 active on b2025                       (PID:   177007) using 1 threads
---> Process   11 of 256 active on b2058                       (PID:    38646) using 1 threads
---> Process   59 of 256 active on b2033                       (PID:    16214) using 1 threads
---> Process  167 of 256 active on b2074                       (PID:    22612) using 1 threads
---> Process   86 of 256 active on b2045                       (PID:    55431) using 1 threads
---> Process  218 of 256 active on b2067                       (PID:   192792) using 1 threads
---> Process  243 of 256 active on b2041                       (PID:    28206) using 1 threads
---> Process  111 of 256 active on b2031                       (PID:   227343) using 1 threads
---> Process  143 of 256 active on b2025                       (PID:   176992) using 1 threads
---> Process   26 of 256 active on b2058                       (PID:    38661) using 1 threads
---> Process   39 of 256 active on b2033                       (PID:    16194) using 1 threads
---> Process  187 of 256 active on b2074                       (PID:    22632) using 1 threads
---> Process   87 of 256 active on b2045                       (PID:    55432) using 1 threads
---> Process  220 of 256 active on b2067                       (PID:   192794) using 1 threads
---> Process  239 of 256 active on b2041                       (PID:    28202) using 1 threads
---> Process  126 of 256 active on b2031                       (PID:   227359) using 1 threads
---> Process  150 of 256 active on b2025                       (PID:   176999) using 1 threads
---> Process   21 of 256 active on b2058                       (PID:    38656) using 1 threads
---> Process   46 of 256 active on b2033                       (PID:    16201) using 1 threads
---> Process  191 of 256 active on b2074                       (PID:    22636) using 1 threads
---> Process   93 of 256 active on b2045                       (PID:    55438) using 1 threads
---> Process  221 of 256 active on b2067                       (PID:   192795) using 1 threads
---> Process  253 of 256 active on b2041                       (PID:    28216) using 1 threads
---> Process  115 of 256 active on b2031                       (PID:   227347) using 1 threads
---> Process  157 of 256 active on b2025                       (PID:   177006) using 1 threads
---> Process   25 of 256 active on b2058                       (PID:    38660) using 1 threads
---> Process   51 of 256 active on b2033                       (PID:    16206) using 1 threads
---> Process  190 of 256 active on b2074                       (PID:    22635) using 1 threads
---> Process   95 of 256 active on b2045                       (PID:    55440) using 1 threads
---> Process  215 of 256 active on b2067                       (PID:   192789) using 1 threads
---> Process  245 of 256 active on b2041                       (PID:    28208) using 1 threads
---> Process  127 of 256 active on b2031                       (PID:   227360) using 1 threads
---> Process  155 of 256 active on b2025                       (PID:   177004) using 1 threads
---> Process    5 of 256 active on b2058                       (PID:    38640) using 1 threads
---> Process   54 of 256 active on b2033                       (PID:    16209) using 1 threads
---> Process  189 of 256 active on b2074                       (PID:    22634) using 1 threads
---> Process   83 of 256 active on b2045                       (PID:    55428) using 1 threads
---> Process  219 of 256 active on b2067                       (PID:   192793) using 1 threads
---> Process  251 of 256 active on b2041                       (PID:    28214) using 1 threads
---> Process  119 of 256 active on b2031                       (PID:   227352) using 1 threads
---> Process  153 of 256 active on b2025                       (PID:   177002) using 1 threads
---> Process   27 of 256 active on b2058                       (PID:    38662) using 1 threads
---> Process   47 of 256 active on b2033                       (PID:    16202) using 1 threads
---> Process  183 of 256 active on b2074                       (PID:    22628) using 1 threads
---> Process  222 of 256 active on b2067                       (PID:   192796) using 1 threads
---> Process  247 of 256 active on b2041                       (PID:    28210) using 1 threads
---> Process  125 of 256 active on b2031                       (PID:   227358) using 1 threads
---> Process    9 of 256 active on b2058                       (PID:    38644) using 1 threads
---> Process   55 of 256 active on b2033                       (PID:    16210) using 1 threads
---> Process  223 of 256 active on b2067                       (PID:   192797) using 1 threads
---> Process  255 of 256 active on b2041                       (PID:    28218) using 1 threads
---> Process  123 of 256 active on b2031                       (PID:   227356) using 1 threads
---> Process   10 of 256 active on b2058                       (PID:    38645) using 1 threads
---> Process  254 of 256 active on b2041                       (PID:    28217) using 1 threads
 Processing the geometrical data for triangles
    0%  100%  
 Processing the geometric data for UTD/RL-GO regions
 Checking the geometrical input data
 --- Processing frequency 1 of 150 ( 9.30000E+09 Hz)
 --- Direction of incidence loop: 1 of 3
 +++ Processing configuration: StandardConfiguration1
 Checking the geometrical input data (frequency dependent)
 Ray launching/tracing for RL-GO (all sources)
    0%    1%    2%    3%    4%    5%    6%    7%    8%    9%   10%   11%   12%   13%   14%   15%   16%   17%   18%   19%   20%   21%   22%   23%   24%   25%   26%   27%   28%   29%   30%   31%   32%   33%   34%   35%   36%   37%   38%   39%   40%   41%   42%   43%   44%   45%   46%   47%   48%   49%   50%   51%   52%   53%   54%   55%   56%   57%   58%   59%   60%   61%   62%   63%   64%   65%   66%   67%   68%   69%   70%   71%   72%   73%   74%   75%   76%   77%   78%   79%   80%   81%   82%   83%   84%   85%   86%   87%   88%   89%   90%   91%   92%   93%   94%   95%   96%   97%   98%   99%  100%  100%  
 --> Currently a memory of 56.168 MByte has been allocated per process
     In total, this corresponds to 14.042 GByte for all processes
     (peak memory usage of 78.680 MByte per process so far)
 Determination of the impedances and powers
    0%  100%  
 Calculate the far field
   (FarField1)
   Using standard far field calculations
   Computation of the far field values in the frequency domain
  100%  
   Exporting of the far field values
  100%  
 --- Direction of incidence loop: 2 of 3
 Ray launching/tracing for RL-GO (all sources)
    4%    5%    6%    7%    8%    9%   10%   11%   12%   13%   14%   15%   16%   17%   18%   19%   20%   21%   22%   23%   24%   25%   26%   27%   28%   29%   30%   31%   32%   33%   34%   35%   36%   37%   38%   39%   40%   41%   42%   43%   44%   45%   46%   47%   48%   49%   50%   51%   52%   53%   54%   55%   56%   57%   58%   59%   60%   61%   62%   63%   64%   65%   66%   67%   68%   69%   70%   71%   72%   73%   74%   75%   76%   77%   78%   79%   80%   81%   82%   83%   84%   85%   86%   87%   88%   89%   90%   91%   92%   93%   94%   95%   96%   98%  100%  
 Determination of the impedances and powers
  100%  
 Calculate the far field
   (FarField1)
   Using standard far field calculations
   Computation of the far field values in the frequency domain
  100%  
   Exporting of the far field values
  100%  
 --- Direction of incidence loop: 3 of 3
 Ray launching/tracing for RL-GO (all sources)
    0%    1%    2%    3%    4%    5%    6%    7%    8%    9%   10%   11%   12%   13%   14%   15%   16%   17%   18%   19%   20%   21%   22%   23%   24%   25%   26%   27%   28%   29%   30%   31%   32%   33%   34%   35%   36%   37%   38%   39%   40%   41%   42%   43%   44%   45%   46%   47%   48%   49%   50%   51%   52%   53%   54%   55%   56%   57%   58%   59%   60%   61%   62%   63%   64%   65%   66%   67%   68%   69%   70%   71%   72%   73%   74%   75%   76%   77%   78%   79%   80%   81%   82%   83%   84%   85%   86%   87%   88%   89%   90%   91%   92%   93%   94%   95%   96%   97%   98%   99%  100%  100%  
 Determination of the impedances and powers
    0%  100%  
 Calculate the far field
   (FarField1)
   Using standard far field calculations
   Computation of the far field values in the frequency domain
  100%  
   Exporting of the far field values
  100%  
 --- Processing frequency 2 of 150 ( 9.30134E+09 Hz)
 --- Direction of incidence loop: 1 of 3
 Checking the geometrical input data (frequency dependent)
 Ray launching/tracing for RL-GO (all sources)
    0%    1%    2%    3%    4%    5%    6%    7%    8%    9%   10%   11%   12%   13%   14%   15%   16%   17%   18%   19%   20%   21%   22%   23%   24%   25%   26%   27%   28%   29%   30%   31%   32%   33%   34%   35%   36%   37%   38%   39%   40%   41%   42%   43%   44%   45%   46%   47%   48%   49%   50%   51%   52%   53%   54%   55%   56%   57%   58%   59%   60%   61%   62%   63%   64%   65%   66%   67%   68%   69%   70%   71%   72%   73%   74%   75%   76%   77%   78%   79%   80%   81%   82%   83%   84%   85%   86%   87%   88%   89%   90%   91%   92%   93%   94%   95%   96%   97%   98%   99%  100%  100%  
 Determination of the impedances and powers
    0%  100%  
 Calculate the far field
   (FarField1)
   Using standard far field calculations
   Computation of the far field values in the frequency domain
  100%  
   Exporting of the far field values
  100%  
 --- Direction of incidence loop: 2 of 3
 Ray launching/tracing for RL-GO (all sources)
    4%    5%    6%    7%    8%    9%   10%   11%   12%   13%   14%   15%   16%   17%   18%   19%   20%   21%   22%   23%   24%   25%   26%   27%   28%   29%   30%   31%   32%   33%   34%   35%   36%   37%   38%   39%   40%   41%   42%   43%   44%   45%   46%   47%   48%   49%   50%   51%   52%   53%   54%   55%   56%   57%   58%   59%   60%   61%   62%   63%   64%   65%   66%   67%   68%   69%   70%   71%   72%   73%   74%   75%   76%   77%   78%   79%   80%   81%   82%   83%   84%   85%   86%   87%   88%   89%   90%   91%   92%   93%   94%   95%   96%   98%  100%  
 Determination of the impedances and powers
    0%  100%  
 Calculate the far field
   (FarField1)
   Using standard far field calculations
   Computation of the far field values in the frequency domain
  100%  
   Exporting of the far field values
  100%  
 --- Direction of incidence loop: 3 of 3
 Ray launching/tracing for RL-GO (all sources)
    0%    1%    2%    3%    4%    5%    6%    7%    8%    9%   10%   11%   12%   13%   14%   15%   16%   17%   18%   19%   20%   21%   22%   23%   24%   25%   26%   27%   28%   29%   30%   31%   32%   33%   34%   35%   36%   37%   38%   39%   40%   41%   42%   43%   44%   45%   46%   47%   48%   49%   50%   51%   52%   53%   54%   55%   56%   57%   58%   59%   60%   61%   62%   63%   64%   65%   66%   67%   68%   69%   70%   71%   72%   73%   74%   75%   76%   77%   78%   79%   80%   81%   82%   83%   84%   85%   86%   87%   88%   89%   90%   91%   92%   93%   94%   95%   96%   97%   98%   99%  100%  100%  
 Determination of the impedances and powers
    0%  100%  
 Calculate the far field
   (FarField1)
   Using standard far field calculations
   Computation of the far field values in the frequency domain
  100%  
   Exporting of the far field values
  100%  
 --- Processing frequency 3 of 150 ( 9.30268E+09 Hz)
 --- Direction of incidence loop: 1 of 3
 Checking the geometrical input data (frequency dependent)
 Ray launching/tracing for RL-GO (all sources)
    0%    1%    2%    3%    4%    5%    6%    7%    8%    9%   10%   11%   12%   13%   14%   15%   16%   17%   18%   19%   20%   21%   22%   23%   24%   25%   26%   27%   28%   29%   30%   31%   32%   33%   34%   35%   36%   37%   38%   39%   40%   41%   42%   43%   44%   45%   46%   47%   48%   49%   50%   51%   52%   53%   54%   55%   56%   57%   58%   59%   60%   61%   62%   63%   64%   65%   66%   67%   68%   69%   70%   71%   72%   73%   74%   75%   76%   77%   78%   79%   80%   81%   82%   83%   84%   85%   86%   87%   88%   89%   90%   91%   92%   93%   94%   95%   96%   97%   98%   99%  100%  100%  
 Determination of the impedances and powers
    0%  100%  
 Calculate the far field
   (FarField1)
   Using standard far field calculations
   Computation of the far field values in the frequency domain
  100%  
   Exporting of the far field values
  100%  
 --- Direction of incidence loop: 2 of 3
 Ray launching/tracing for RL-GO (all sources)
    4%    5%    6%    7%    8%    9%   10%   11%   12%   13%   14%   15%   16%   17%   18%   19%   20%   21%   22%   23%   24%   25%   26%   27%   28%   29%   30%   31%   32%   33%   34%   35%   36%   37%   38%   39%   40%   41%   42%   43%   44%   45%   46%   47%   48%   49%   50%   51%   52%   53%   54%   55%   56%   57%   58%   59%   60%   61%   62%   63%   64%   65%   66%   67%   68%   69%   70%   71%   72%   73%   74%   75%   76%   77%   78%   79%   80%   81%   82%   83%   84%   85%   86%   87%   88%   89%   90%   91%   92%   93%   94%   95%   96%   98%  100%  
 Determination of the impedances and powers
    0%  100%  
 Calculate the far field
   (FarField1)
   Using standard far field calculations
   Computation of the far field values in the frequency domain
  100%  
   Exporting of the far field values
  100%  
 --- Direction of incidence loop: 3 of 3
 Ray launching/tracing for RL-GO (all sources)
    0%    1%    2%    3%    4%    5%    6%    7%    8%    9%   10%   11%   12%   13%   14%   15%   16%   17%   18%   19%   20%   21%   22%   23%   24%   25%   26%   27%   28%   29%   30%   31%   32%   33%   34%   35%   36%   37%   38%   39%   40%   41%   42%   43%   44%   45%   46%   47%   48%   49%   50%   51%   52%   53%   54%   55%   56%   57%   58%   59%   60%   61%   62%   63%   64%   65%   66%   67%   68%   69%   70%   71%   72%   73%   74%   75%   76%   77%   78%   79%   80%   81%   82%   83%   84%   85%   86%   87%   88%   89%   90%   91%   92%   93%   94%   95%   96%   97%   98%   99%  100%  100%  
 Determination of the impedances and powers
    0%  100%  
 Calculate the far field
   (FarField1)
   Using standard far field calculations
   Computation of the far field values in the frequency domain
  100%  
   Exporting of the far field values
  100%  
 --- Processing frequency 4 of 150 ( 9.30403E+09 Hz)
 --- Direction of incidence loop: 1 of 3
 Checking the geometrical input data (frequency dependent)
 Ray launching/tracing for RL-GO (all sources)
    0%    1%    2%    3%    4%    5%    6%    7%    8%    9%   10%   11%   12%   13%   14%   15%   16%   17%   18%   19%   20%   21%   22%   23%   24%   25%   26%   27%   28%   29%   30%   31%   32%   33%   34%   35%   36%   37%   38%   39%   40%   41%   42%   43%   44%   45%   46%   47%   48%   49%   50%   51%   52%   53%   54%   55%   56%   57%   58%   59%   60%   61%   62%   63%   64%   65%   66%   67%   68%   69%   70%   71%   72%   73%   74%   75%   76%   77%   78%   79%   80%   81%   82%   83%   84%   85%   86%   87%   88%   89%   90%   91%   92%   93%   94%   95%   96%   97%   98%   99%  100%  100%  
 Determination of the impedances and powers
    0%  100%  
 Calculate the far field
   (FarField1)
   Using standard far field calculations
   Computation of the far field values in the frequency domain
  100%  
   Exporting of the far field values
  100%  
 --- Direction of incidence loop: 2 of 3
 Ray launching/tracing for RL-GO (all sources)
    4%    5%    6%    7%    8%    9%   10%   11%   12%   13%   14%   15%   16%   17%   18%   19%   20%   21%   22%   23%   24%   25%   26%   27%   28%   29%   30%   31%   32%   33%   34%   35%   36%   37%   38%   39%   40%   41%   42%   43%   44%   45%   46%   47%   48%   49%   50%   51%   52%   53%   54%   55%   56%   57%   58%   59%   60%   61%   62%   63%   64%   65%   66%   67%   68%   69%   70%   71%   72%   73%   74%   75%   76%   77%   78%   79%   80%   81%   82%   83%   84%   85%   86%   87%   88%   89%   90%   91%   92%   93%   94%   95%   96%   98%  100%  
 Determination of the impedances and powers
  100%  
 Calculate the far field
   (FarField1)
   Using standard far field calculations
   Computation of the far field values in the frequency domain
  100%  
   Exporting of the far field values
  100%  
 --- Direction of incidence loop: 3 of 3
 Ray launching/tracing for RL-GO (all sources)
    0%    1%    2%    3%    4%    5%    6%    7%    8%    9%   10%   11%   12%   13%   14%   15%   16%   17%   18%   19%   20%   21%   22%   23%   24%   25%   26%   27%   28%   29%   30%   31%   32%   33%   34%   35%   36%   37%   38%   39%   40%   41%   42%   43%   44%   45%   46%   47%   48%   49%   50%   51%   52%   53%   54%   55%   56%   57%   58%   59%   60%   61%   62%   63%   64%   65%   66%   67%   68%   69%   70%   71%   72%   73%   74%   75%   76%   77%   78%   79%   80%   81%   82%   83%   84%   85%   86%   87%   88%   89%   90%   91%   92%   93%   94%   95%   96%   97%   98%   99%  100%  100%  
 Determination of the impedances and powers
    0%  100%  
 Calculate the far field
   (FarField1)
   Using standard far field calculations
   Computation of the far field values in the frequency domain
  100%  
   Exporting of the far field values
  100%  
 --- Processing frequency 5 of 150 ( 9.30537E+09 Hz)
 --- Direction of incidence loop: 1 of 3
 Checking the geometrical input data (frequency dependent)
 Ray launching/tracing for RL-GO (all sources)
    0%    1%    2%    3%    4%    5%    6%    7%    8%    9%   10%   11%   12%   13%   14%   15%   16%   17%   18%   19%   20%   21%   22%   23%   24%   25%   26%   27%   28%   29%   30%   31%   32%   33%   34%   35%   36%   37%   38%   39%   40%   41%   42%   43%   44%   45%   46%   47%   48%   49%   50%   51%   52%   53%   54%   55%   56%   57%   58%   59%   60%   61%   62%   63%   64%   65%   66%   67%   68%   69%   70%   71%   72%   73%   74%   75%   76%   77%   78%   79%   80%   81%   82%   83%   84%   85%   86%   87%   88%   89%   90%   91%   92%   93%   94%   95%   96%   97%   98%   99%  100%  100%  
 Determination of the impedances and powers
    0%  100%  
 Calculate the far field
   (FarField1)
   Using standard far field calculations
   Computation of the far field values in the frequency domain
  100%  
   Exporting of the far field values
  100%  
 --- Direction of incidence loop: 2 of 3
 Ray launching/tracing for RL-GO (all sources)
    4%    5%    6%    7%    8%    9%   10%   11%   12%   13%   14%   15%   16%   17%   18%   19%   20%   21%   22%   23%   24%   25%   26%   27%   28%   29%   30%   31%   32%   33%   34%   35%   36%   37%   38%   39%   40%   41%   42%   43%   44%   45%   46%   47%   48%   49%   50%   51%   52%   53%   54%   55%   56%   57%   58%   59%   60%   61%   62%   63%   64%   65%   66%   67%   68%   69%   70%   71%   72%   73%   74%   75%   76%   77%   78%   79%   80%   81%   82%   83%   84%   85%   86%   87%   88%   89%   90%   91%   92%   93%   94%   95%   96%   98%  100%  
 Determination of the impedances and powers
    0%  100%  
 Calculate the far field
   (FarField1)
   Using standard far field calculations
   Computation of the far field values in the frequency domain
  100%  
   Exporting of the far field values
  100%  
 --- Direction of incidence loop: 3 of 3
 Ray launching/tracing for RL-GO (all sources)
    0%    1%    2%    3%    4%    5%    6%    7%    8%    9%   10%   11%   12%   13%   14%   15%   16%   17%   18%   19%   20%   21%   22%   23%   24%   25%   26%   27%   28%   29%   30%   31%   32%   33%   34%   35%   36%   37%   38%   39%   40%   41%   42%   43%   44%   45%   46%   47%   48%   49%   50%   51%   52%   53%   54%   55%   56%   57%   58%   59%   60%   61%   62%   63%   64%   65%   66%   67%   68%   69%   70%   71%   72%   73%   74%   75%   76%   77%   78%   79%   80%   81%   82%   83%   84%   85%   86%   87%   88%   89%   90%   91%   92%   93%   94%   95%   96%   97%   98%   99%  100%  100%  
 Determination of the impedances and powers
    0%  100%  
 Calculate the far field
   (FarField1)
   Using standard far field calculations
   Computation of the far field values in the frequency domain
  100%  
   Exporting of the far field values
  100%  
 --- Processing frequency 6 of 150 ( 9.30671E+09 Hz)
 --- Direction of incidence loop: 1 of 3
 Checking the geometrical input data (frequency dependent)
 Ray launching/tracing for RL-GO (all sources)
    0%    1%    2%    3%    4%    5%    6%    7%    8%    9%   10%   11%   12%   13%   14%   15%   16%   17%   18%   19%   20%   21%   22%   23%   24%   25%   26%   27%   28%   29%   30%   31%   32%   33%   34%   35%   36%   37%   38%   39%   40%   41%   42%   43%   44%   45%   46%   47%   48%   49%   50%   51%   52%   53%   54%   55%   56%   57%   58%   59%   60%   61%   62%   63%   64%   65%   66%   67%   68%   69%   70%   71%   72%   73%   74%   75%   76%   77%   78%   79%   80%   81%   82%   83%   84%   85%   86%   87%   88%   89%   90%   91%   92%   93%   94%   95%   96%   97%   98%   99%  100%  100%  
 Determination of the impedances and powers
    0%  100%  
 Calculate the far field
   (FarField1)
   Using standard far field calculations
   Computation of the far field values in the frequency domain
  100%  
   Exporting of the far field values
  100%  
 --- Direction of incidence loop: 2 of 3
 Ray launching/tracing for RL-GO (all sources)
    4%    5%    6%    7%    8%    9%   10%   11%   12%   13%   14%   15%   16%   17%   18%   19%   20%   21%   22%   23%   24%   25%   26%   27%   28%   29%   30%   31%   32%   33%   34%   35%   36%   37%   38%   39%   40%   41%   42%   43%   44%   45%   46%   47%   48%   49%   50%   51%   52%   53%   54%   55%   56%   57%   58%   59%   60%   61%   62%   63%   64%   65%   66%   67%   68%   69%   70%   71%   72%   73%   74%   75%   76%   77%   78%   79%   80%   81%   82%   83%   84%   85%   86%   87%   88%   89%   90%   91%   92%   93%   94%   95%   96%   98%  100%  
 Determination of the impedances and powers
  100%  
 Calculate the far field
   (FarField1)
   Using standard far field calculations
   Computation of the far field values in the frequency domain
  100%  
   Exporting of the far field values
  100%  
 --- Direction of incidence loop: 3 of 3
 Ray launching/tracing for RL-GO (all sources)
    0%    1%    2%    3%    4%    5%    6%    7%    8%    9%   10%   11%   12%   13%   14%   15%   16%   17%   18%   19%   20%   21%   22%   23%   24%   25%   26%   27%   28%   29%   30%   31%   32%   33%   34%   35%   36%   37%   38%   39%   40%   41%   42%   43%   44%   45%   46%   47%   48%   49%   50%   51%   52%   53%   54%   55%   56%   57%   58%   59%   60%   61%   62%   63%   64%   65%   66%   67%   68%   69%   70%   71%   72%   73%   74%   75%   76%   77%   78%   79%   80%   81%   82%   83%   84%   85%   86%   87%   88%   89%   90%   91%   92%   93%   94%   95%   96%   97%   98%   99%  100%  100%  
 Determination of the impedances and powers
    0%  100%  
 Calculate the far field
   (FarField1)
   Using standard far field calculations
   Computation of the far field values in the frequency domain
  100%  
   Exporting of the far field values
  100%  
 --- Processing frequency 7 of 150 ( 9.30805E+09 Hz)
 --- Direction of incidence loop: 1 of 3
 Checking the geometrical input data (frequency dependent)
 Ray launching/tracing for RL-GO (all sources)
    0%    1%    2%    3%    4%    5%    6%    7%    8%    9%   10%   11%   12%   13%   14%   15%   16%   17%   18%   19%   20%   21%   22%   23%   24%   25%   26%   27%   28%   29%   30%   31%   32%   33%   34%   35%   36%   37%   38%   39%   40%   41%   42%   43%   44%   45%   46%   47%   48%   49%   50%   51%   52%   53%   54%   55%   56%   57%   58%   59%   60%   61%   62%   63%   64%   65%   66%   67%   68%   69%   70%   71%   72%   73%   74%   75%   76%   77%   78%   79%   80%   81%   82%   83%   84%   85%   86%   87%   88%   89%   90%   91%   92%   93%   94%   95%   96%   97%   98%   99%  100%  100%  
 Determination of the impedances and powers
    0%  100%  
 Calculate the far field
   (FarField1)
   Using standard far field calculations
   Computation of the far field values in the frequency domain
  100%  
   Exporting of the far field values
  100%  
 --- Direction of incidence loop: 2 of 3
 Ray launching/tracing for RL-GO (all sources)
    4%    5%    6%    7%    8%    9%   10%   11%   12%   13%   14%   15%   16%   17%   18%   19%   20%   21%   22%   23%   24%   25%   26%   27%   28%   29%   30%   31%   32%   33%   34%   35%   36%   37%   38%   39%   40%   41%   42%   43%   44%   45%   46%   47%   48%   49%   50%   51%   52%   53%   54%   55%   56%   57%   58%   59%   60%   61%   62%   63%   64%   65%   66%   67%   68%   69%   70%   71%   72%   73%   74%   75%   76%   77%   78%   79%   80%   81%   82%   83%   84%   85%   86%   87%   88%   89%   90%   91%   92%   93%   94%   95%   96%   98%  100%  
 Determination of the impedances and powers
    0%  100%  
 Calculate the far field
   (FarField1)
   Using standard far field calculations
   Computation of the far field values in the frequency domain
  100%  
   Exporting of the far field values
  100%  
 --- Direction of incidence loop: 3 of 3
 Ray launching/tracing for RL-GO (all sources)
    0%    1%    2%    3%    4%    5%    6%    7%    8%    9%   10%   11%   12%   13%   14%   15%   16%   17%   18%   19%   20%   21%   22%   23%   24%   25%   26%   27%   28%   29%   30%   31%   32%   33%   34%   35%   36%   37%   38%   39%   40%   41%   42%   43%   44%   45%   46%   47%   48%   49%   50%   51%   52%   53%   54%   55%   56%   57%   58%   59%   60%   61%   62%   63%   64%   65%   66%   67%   68%   69%   70%   71%   72%   73%   74%   75%   76%   77%   78%   79%   80%   81%   82%   83%   84%   85%   86%   87%   88%   89%   90%   91%   92%   93%   94%   95%   96%   97%   98%   99%  100%  100%  
 Determination of the impedances and powers
    0%  100%  
 Calculate the far field
   (FarField1)
   Using standard far field calculations
   Computation of the far field values in the frequency domain
  100%  
   Exporting of the far field values
  100%  
 --- Processing frequency 8 of 150 ( 9.30940E+09 Hz)
 --- Direction of incidence loop: 1 of 3
 Checking the geometrical input data (frequency dependent)
 Ray launching/tracing for RL-GO (all sources)
    0%    1%    2%    3%    4%    5%    6%    7%    8%    9%   10%   11%   12%   13%   14%   15%   16%   17%   18%   19%   20%   21%   22%   23%   24%   25%   26%   27%   28%   29%   30%   31%   32%   33%   34%   35%   36%   37%   38%   39%   40%   41%   42%   43%   44%   45%   46%   47%   48%   49%   50%   51%   52%   53%   54%   55%   56%   57%   58%   59%   60%   61%   62%   63%   64%   65%   66%   67%   68%   69%   70%   71%   72%   73%   74%   75%   76%   77%   78%   79%   80%   81%   82%   83%   84%   85%   86%   87%   88%   89%   90%   91%   92%   93%   94%   95%   96%   97%   98%   99%  100%  100%  
 Determination of the impedances and powers
    0%  100%  
 Calculate the far field
   (FarField1)
   Using standard far field calculations
   Computation of the far field values in the frequency domain
  100%  
   Exporting of the far field values
  100%  
 --- Direction of incidence loop: 2 of 3
 Ray launching/tracing for RL-GO (all sources)
    3%    5%    6%    7%    8%    9%   10%   11%   12%   13%   14%   15%   16%   17%   18%   19%   20%   21%   22%   23%   24%   25%   26%   27%   28%   29%   30%   31%   32%   33%   34%   35%   36%   37%   38%   39%   40%   41%   42%   43%   44%   45%   46%   47%   48%   49%   50%   51%   52%   53%   54%   55%   56%   57%   58%   59%   60%   61%   62%   63%   64%   65%   66%   67%   68%   69%   70%   71%   72%   73%   74%   75%   76%   77%   78%   79%   80%   81%   82%   83%   84%   85%   86%   87%   88%   89%   90%   91%   92%   93%   94%   95%   96%   98%  100%  
 Determination of the impedances and powers
    0%  100%  
 Calculate the far field
   (FarField1)
   Using standard far field calculations
   Computation of the far field values in the frequency domain
  100%  
   Exporting of the far field values
  100%  
 --- Direction of incidence loop: 3 of 3
 Ray launching/tracing for RL-GO (all sources)
    0%    1%    2%    3%    4%    5%    6%    7%    8%    9%   10%   11%   12%   13%   14%   15%   16%   17%   18%   19%   20%   21%   22%   23%   24%   25%   26%   27%   28%   29%   30%   31%   32%   33%   34%   35%   36%   37%   38%   39%   40%   41%   42%   43%   44%   45%   46%   47%   48%   49%   50%   51%   52%   53%   54%   55%   56%   57%   58%   59%   60%   61%   62%   63%   64%   65%   66%   67%   68%   69%   70%   71%   72%   73%   74%   75%   76%   77%   78%   79%   80%   81%   82%   83%   84%   85%   86%   87%   88%   89%   90%   91%   92%   93%   94%   95%   96%   97%   98%   99%  100%  100%  
 Determination of the impedances and powers
    0%  100%  
 Calculate the far field
   (FarField1)
   Using standard far field calculations
   Computation of the far field values in the frequency domain
  100%  
   Exporting of the far field values
  100%  
 --- Processing frequency 9 of 150 ( 9.31074E+09 Hz)
 --- Direction of incidence loop: 1 of 3
 Checking the geometrical input data (frequency dependent)
 Ray launching/tracing for RL-GO (all sources)
    0%    1%    2%    3%    4%    5%    6%    7%    8%    9%   10%   11%   12%   13%   14%   15%   16%   17%   18%   19%   20%   21%   22%   23%   24%   25%   26%   27%   28%   29%   30%   31%   32%   33%   34%   35%   36%   37%   38%   39%   40%   41%   42%   43%   44%   45%   46%   47%   48%   49%   50%   51%   52%   53%   54%   55%   56%   57%   58%   59%   60%   61%   62%   63%   64%   65%   66%   67%   68%   69%   70%   71%   72%   73%   74%   75%   76%   77%   78%   79%   80%   81%   82%   83%   84%   85%   86%   87%   88%   89%   90%   91%   92%   93%   94%   95%   96%   97%   98%   99%  100%  100%  
 Determination of the impedances and powers
    0%  100%  
 Calculate the far field
   (FarField1)
   Using standard far field calculations
   Computation of the far field values in the frequency domain
  100%  
   Exporting of the far field values
  100%  
 --- Direction of incidence loop: 2 of 3
 Ray launching/tracing for RL-GO (all sources)
    4%    5%    6%    7%    8%    9%   10%   11%   12%   13%   14%   15%   16%   17%   18%   19%   20%   21%   22%   23%   24%   25%   26%   27%   28%   29%   30%   31%   32%   33%   34%   35%   36%   37%   38%   39%   40%   41%   42%   43%   44%   45%   46%   47%   48%   49%   50%   51%   52%   53%   54%   55%   56%   57%   58%   59%   60%   61%   62%   63%   64%   65%   66%   67%   68%   69%   70%   71%   72%   73%   74%   75%   76%   77%   78%   79%   80%   81%   82%   83%   84%   85%   86%   87%   88%   89%   90%   91%   92%   93%   94%   95%   96%   98%  100%  
 Determination of the impedances and powers
    0%  100%  
 Calculate the far field
   (FarField1)
   Using standard far field calculations
   Computation of the far field values in the frequency domain
  100%  
   Exporting of the far field values
  100%  
 --- Direction of incidence loop: 3 of 3
 Ray launching/tracing for RL-GO (all sources)
    0%    1%    2%    3%    4%    5%    6%    7%    8%    9%   10%   11%   12%   13%   14%   15%   16%   17%   18%   19%   20%   21%   22%   23%   24%   25%   26%   27%   28%   29%   30%   31%   32%   33%   34%   35%   36%   37%   38%   39%   40%   41%   42%   43%   44%   45%   46%   47%   48%   49%   50%   51%   52%   53%   54%   55%   56%   57%   58%   59%   60%   61%   62%   63%   64%   65%   66%   67%   68%   69%   70%   71%   72%   73%   74%   75%   76%   77%   78%   79%   80%   81%   82%   83%   84%   85%   86%   87%   88%   89%   90%   91%   92%   93%   94%   95%   96%   97%   98%   99%  100%  100%  
 Determination of the impedances and powers
    0%  100%  
 Calculate the far field
   (FarField1)
   Using standard far field calculations
   Computation of the far field values in the frequency domain
  100%  
   Exporting of the far field values
  100%  
 --- Processing frequency 10 of 150 ( 9.31208E+09 Hz)
 --- Direction of incidence loop: 1 of 3
 Checking the geometrical input data (frequency dependent)
 Ray launching/tracing for RL-GO (all sources)
    0%    1%    2%    3%    4%    5%    6%    7%    8%    9%   10%   11%   12%   13%   14%   15%   16%   17%   18%   19%   20%   21%   22%   23%   24%   25%   26%   27%   28%   29%   30%   31%   32%   33%   34%   35%   36%   37%   38%   39%   40%   41%   42%   43%   44%   45%   46%   47%   48%   49%   50%   51%   52%   53%   54%   55%   56%   57%   58%   59%   60%   61%   62%   63%   64%   65%   66%   67%   68%   69%   70%   71%   72%   73%   74%   75%   76%   77%   78%   79%   80%   81%   82%   83%   84%   85%   86%   87%   88%   89%   90%   91%   92%   93%   94%   95%   96%   97%   98%   99%  100%  100%  
 Determination of the impedances and powers
    0%  100%  
 Calculate the far field
   (FarField1)
   Using standard far field calculations
   Computation of the far field values in the frequency domain
  100%  
   Exporting of the far field values
  100%  
 --- Direction of incidence loop: 2 of 3
 Ray launching/tracing for RL-GO (all sources)
    4%    5%    6%    7%    8%    9%   10%   11%   12%   13%   14%   15%   16%   17%   18%   19%   20%   21%   22%   23%   24%   25%   26%   27%   28%   29%   30%   31%   32%   33%   34%   35%   36%   37%   38%   39%   40%   41%   42%   43%   44%   45%   46%   47%   48%   49%   50%   51%   52%   53%   54%   55%   56%   57%   58%   59%   60%   61%   62%   63%   64%   65%   66%   67%   68%   69%   70%   71%   72%   73%   74%   75%   76%   77%   78%   79%   80%   81%   82%   83%   84%   85%   86%   87%   88%   89%   90%   91%   92%   93%   94%   95%   96%   97%  100%  
 Determination of the impedances and powers
    0%  100%  
 Calculate the far field
   (FarField1)
   Using standard far field calculations
   Computation of the far field values in the frequency domain
  100%  
   Exporting of the far field values
  100%  
 --- Direction of incidence loop: 3 of 3
 Ray launching/tracing for RL-GO (all sources)
    0%    1%    2%    3%    4%    5%    6%    7%    8%    9%   10%   11%   12%   13%   14%   15%   16%   17%   18%   19%   20%   21%   22%   23%   24%   25%   26%   27%   28%   29%   30%   31%   32%   33%   34%   35%   36%   37%   38%   39%   40%   41%   42%   43%   44%   45%   46%   47%   48%   49%   50%   51%   52%   53%   54%   55%   56%   57%   58%   59%   60%   61%   62%   63%   64%   65%   66%   67%   68%   69%   70%   71%   72%   73%   74%   75%   76%   77%   78%   79%   80%   81%   82%   83%   84%   85%   86%   87%   88%   89%   90%   91%   92%   93%   94%   95%   96%   97%   98%   99%  100%  100%  
 Determination of the impedances and powers
    0%  100%  
 Calculate the far field
   (FarField1)
   Using standard far field calculations
   Computation of the far field values in the frequency domain
  100%  
   Exporting of the far field values
  100%  
 --- Processing frequency 11 of 150 ( 9.31342E+09 Hz)
 --- Direction of incidence loop: 1 of 3
 Checking the geometrical input data (frequency dependent)
 Ray launching/tracing for RL-GO (all sources)
    0%    1%    2%    3%    4%    5%    6%    7%    8%    9%   10%   11%   12%   13%   14%   15%   16%   17%   18%   19%   20%   21%   22%   23%   24%   25%   26%   27%   28%   29%   30%   31%   32%   33%   34%   35%   36%   37%   38%   39%   40%   41%   42%   43%   44%   45%   46%   47%   48%   49%   50%   51%   52%   53%   54%   55%   56%   57%   58%   59%   60%   61%   62%   63%   64%   65%   66%   67%   68%   69%   70%   71%   72%   73%   74%   75%   76%   77%   78%   79%   80%   81%   82%   83%   84%   85%   86%   87%   88%   89%   90%   91%   92%   93%   94%   95%   96%   97%   98%   99%  100%  100%  
 Determination of the impedances and powers
    0%  100%  
 Calculate the far field
   (FarField1)
   Using standard far field calculations
   Computation of the far field values in the frequency domain
  100%  
   Exporting of the far field values
  100%  
 --- Direction of incidence loop: 2 of 3
 Ray launching/tracing for RL-GO (all sources)
[...]
 Determination of the impedances and powers
  100%  
 Calculate the far field
   (FarField1)
   Using standard far field calculations
   Computation of the far field values in the frequency domain
  100%  
   Exporting of the far field values
  100%  
 --- Processing frequency 147 of 150 ( 9.49597E+09 Hz)
 --- Direction of incidence loop: 1 of 3
 Checking the geometrical input data (frequency dependent)
 Ray launching/tracing for RL-GO (all sources)
    0%    1%    2%    3%    4%    5%    6%    7%    8%    9%   10%   11%   12%   13%   14%   15%   16%   17%   18%   19%   20%   21%   22%   23%   24%   25%   26%   27%   28%   29%   30%   31%   32%   33%   34%   35%   36%   37%   38%   39%   40%   41%   42%   43%   44%   45%   46%   47%   48%   49%   50%   51%   52%   53%   54%   55%   56%   57%   58%   59%   60%   61%   62%   63%   64%   65%   66%   67%   68%   69%   70%   71%   72%   73%   74%   75%   76%   77%   78%   79%   80%   81%   82%   83%   84%   85%   86%   87%   88%   89%   90%   91%   92%   93%   94%   95%   96%   97%   98%   99%  100%  100%  
 Determination of the impedances and powers
    0%  100%  
 Calculate the far field
   (FarField1)
   Using standard far field calculations
   Computation of the far field values in the frequency domain
  100%  
   Exporting of the far field values
  100%  
 --- Direction of incidence loop: 2 of 3
 Ray launching/tracing for RL-GO (all sources)
    5%    6%    7%    8%    9%   10%   11%   12%   13%   14%   15%   16%   17%   18%   19%   20%   21%   22%   23%   24%   25%   26%   27%   28%   29%   30%   31%   32%   33%   34%   35%   36%   37%   38%   39%   40%   41%   42%   43%   44%   45%   46%   47%   48%   49%   50%   51%   52%   53%   54%   55%   56%   57%   58%   59%   60%   61%   62%   63%   64%   65%   66%   67%   68%   69%   70%   71%   72%   73%   74%   75%   76%   77%   78%   79%   80%   81%   82%   83%   84%   85%   86%   87%   88%   89%   90%   91%   92%   93%   94%   95%   96%   98%  100%  
 Determination of the impedances and powers
  100%  
 Calculate the far field
   (FarField1)
   Using standard far field calculations
   Computation of the far field values in the frequency domain
  100%  
   Exporting of the far field values
  100%  
 --- Direction of incidence loop: 3 of 3
 Ray launching/tracing for RL-GO (all sources)
    0%    1%    2%    3%    4%    5%    6%    7%    8%    9%   10%   11%   12%   13%   14%   15%   16%   17%   18%   19%   20%   21%   22%   23%   24%   25%   26%   27%   28%   29%   30%   31%   32%   33%   34%   35%   36%   37%   38%   39%   40%   41%   42%   43%   44%   45%   46%   47%   48%   49%   50%   51%   52%   53%   54%   55%   56%   57%   58%   59%   60%   61%   62%   63%   64%   65%   66%   67%   68%   69%   70%   71%   72%   73%   74%   75%   76%   77%   78%   79%   80%   81%   82%   83%   84%   85%   86%   87%   88%   89%   90%   91%   92%   93%   94%   95%   96%   97%   98%   99%  100%  100%  
 Determination of the impedances and powers
  100%  
 Calculate the far field
   (FarField1)
   Using standard far field calculations
   Computation of the far field values in the frequency domain
  100%  
   Exporting of the far field values
  100%  
 --- Processing frequency 148 of 150 ( 9.49732E+09 Hz)
 --- Direction of incidence loop: 1 of 3
 Checking the geometrical input data (frequency dependent)
 Ray launching/tracing for RL-GO (all sources)
    0%    1%    2%    3%    4%    5%    6%    7%    8%    9%   10%   11%   12%   13%   14%   15%   16%   17%   18%   19%   20%   21%   22%   23%   24%   25%   26%   27%   28%   29%   30%   31%   32%   33%   34%   35%   36%   37%   38%   39%   40%   41%   42%   43%   44%   45%   46%   47%   48%   49%   50%   51%   52%   53%   54%   55%   56%   57%   58%   59%   60%   61%   62%   63%   64%   65%   66%   67%   68%   69%   70%   71%   72%   73%   74%   75%   76%   77%   78%   79%   80%   81%   82%   83%   84%   85%   86%   87%   88%   89%   90%   91%   92%   93%   94%   95%   96%   97%   98%   99%  100%  100%  
 Determination of the impedances and powers
    0%  100%  
 Calculate the far field
   (FarField1)
   Using standard far field calculations
   Computation of the far field values in the frequency domain
  100%  
   Exporting of the far field values
  100%  
 --- Direction of incidence loop: 2 of 3
 Ray launching/tracing for RL-GO (all sources)
    5%    6%    7%    8%    9%   10%   11%   12%   13%   14%   15%   16%   17%   18%   19%   20%   21%   22%   23%   24%   25%   26%   27%   28%   29%   30%   31%   32%   33%   34%   35%   36%   37%   38%   39%   40%   41%   42%   43%   44%   45%   46%   47%   48%   49%   50%   51%   52%   53%   54%   55%   56%   57%   58%   59%   60%   61%   62%   63%   64%   65%   66%   67%   68%   69%   70%   71%   72%   73%   74%   75%   76%   77%   78%   79%   80%   81%   82%   83%   84%   85%   86%   87%   88%   89%   90%   91%   92%   93%   94%   95%   96%   98%  100%  
 Determination of the impedances and powers
    0%  100%  
 Calculate the far field
   (FarField1)
   Using standard far field calculations
   Computation of the far field values in the frequency domain
  100%  
   Exporting of the far field values
  100%  
 --- Direction of incidence loop: 3 of 3
 Ray launching/tracing for RL-GO (all sources)
    0%    1%    2%    3%    4%    5%    6%    7%    8%    9%   10%   11%   12%   13%   14%   15%   16%   17%   18%   19%   20%   21%   22%   23%   24%   25%   26%   27%   28%   29%   30%   31%   32%   33%   34%   35%   36%   37%   38%   39%   40%   41%   42%   43%   44%   45%   46%   47%   48%   49%   50%   51%   52%   53%   54%   55%   56%   57%   58%   59%   60%   61%   62%   63%   64%   65%   66%   67%   68%   69%   70%   71%   72%   73%   74%   75%   76%   77%   78%   79%   80%   81%   82%   83%   84%   85%   86%   87%   88%   89%   90%   91%   92%   93%   94%   95%   96%   97%   98%   99%  100%  100%  
 Determination of the impedances and powers
  100%  
 Calculate the far field
   (FarField1)
   Using standard far field calculations
   Computation of the far field values in the frequency domain
  100%  
   Exporting of the far field values
  100%  
 --- Processing frequency 149 of 150 ( 9.49866E+09 Hz)
 --- Direction of incidence loop: 1 of 3
 Checking the geometrical input data (frequency dependent)
 Ray launching/tracing for RL-GO (all sources)
    0%    1%    2%    3%    4%    5%    6%    7%    8%    9%   10%   11%   12%   13%   14%   15%   16%   17%   18%   19%   20%   21%   22%   23%   24%   25%   26%   27%   28%   29%   30%   31%   32%   33%   34%   35%   36%   37%   38%   39%   40%   41%   42%   43%   44%   45%   46%   47%   48%   49%   50%   51%   52%   53%   54%   55%   56%   57%   58%   59%   60%   61%   62%   63%   64%   65%   66%   67%   68%   69%   70%   71%   72%   73%   74%   75%   76%   77%   78%   79%   80%   81%   82%   83%   84%   85%   86%   87%   88%   89%   90%   91%   92%   93%   94%   95%   96%   97%   98%   99%  100%  100%  
 Determination of the impedances and powers
    0%  100%  
 Calculate the far field
   (FarField1)
   Using standard far field calculations
   Computation of the far field values in the frequency domain
  100%  
   Exporting of the far field values
  100%  
 --- Direction of incidence loop: 2 of 3
 Ray launching/tracing for RL-GO (all sources)
    4%    6%    7%    8%    9%   10%   11%   12%   13%   14%   15%   16%   17%   18%   19%   20%   21%   22%   23%   24%   25%   26%   27%   28%   29%   30%   31%   32%   33%   34%   35%   36%   37%   38%   39%   40%   41%   42%   43%   44%   45%   46%   47%   48%   49%   50%   51%   52%   53%   54%   55%   56%   57%   58%   59%   60%   61%   62%   63%   64%   65%   66%   67%   68%   69%   70%   71%   72%   73%   74%   75%   76%   77%   78%   79%   80%   81%   82%   83%   84%   85%   86%   87%   88%   89%   90%   91%   92%   93%   94%   95%   96%   98%  100%  
 Determination of the impedances and powers
    0%  100%  
 Calculate the far field
   (FarField1)
   Using standard far field calculations
   Computation of the far field values in the frequency domain
  100%  
   Exporting of the far field values
  100%  
 --- Direction of incidence loop: 3 of 3
 Ray launching/tracing for RL-GO (all sources)
    0%    1%    2%    3%    4%    5%    6%    7%    8%    9%   10%   11%   12%   13%   14%   15%   16%   17%   18%   19%   20%   21%   22%   23%   24%   25%   26%   27%   28%   29%   30%   31%   32%   33%   34%   35%   36%   37%   38%   39%   40%   41%   42%   43%   44%   45%   46%   47%   48%   49%   50%   51%   52%   53%   54%   55%   56%   57%   58%   59%   60%   61%   62%   63%   64%   65%   66%   67%   68%   69%   70%   71%   72%   73%   74%   75%   76%   77%   78%   79%   80%   81%   82%   83%   84%   85%   86%   87%   88%   89%   90%   91%   92%   93%   94%   95%   96%   97%   98%   99%  100%  100%  
 Determination of the impedances and powers
    0%  100%  
 Calculate the far field
   (FarField1)
   Using standard far field calculations
   Computation of the far field values in the frequency domain
  100%  
   Exporting of the far field values
  100%  
 --- Processing frequency 150 of 150 ( 9.50000E+09 Hz)
 --- Direction of incidence loop: 1 of 3
 Checking the geometrical input data (frequency dependent)
 Ray launching/tracing for RL-GO (all sources)
    0%    1%    2%    3%    4%    5%    6%    7%    8%    9%   10%   11%   12%   13%   14%   15%   16%   17%   18%   19%   20%   21%   22%   23%   24%   25%   26%   27%   28%   29%   30%   31%   32%   33%   34%   35%   36%   37%   38%   39%   40%   41%   42%   43%   44%   45%   46%   47%   48%   49%   50%   51%   52%   53%   54%   55%   56%   57%   58%   59%   60%   61%   62%   63%   64%   65%   66%   67%   68%   69%   70%   71%   72%   73%   74%   75%   76%   77%   78%   79%   80%   81%   82%   83%   84%   85%   86%   87%   88%   89%   90%   91%   92%   93%   94%   95%   96%   97%   98%   99%  100%  100%  
 Determination of the impedances and powers
    0%  100%  
 Calculate the far field
   (FarField1)
   Using standard far field calculations
   Computation of the far field values in the frequency domain
  100%  
   Exporting of the far field values
  100%  
 --- Direction of incidence loop: 2 of 3
 Ray launching/tracing for RL-GO (all sources)
    5%    6%    7%    8%    9%   10%   11%   12%   13%   14%   15%   16%   17%   18%   19%   20%   21%   22%   23%   24%   25%   26%   27%   28%   29%   30%   31%   32%   33%   34%   35%   36%   37%   38%   39%   40%   41%   42%   43%   44%   45%   46%   47%   48%   49%   50%   51%   52%   53%   54%   55%   56%   57%   58%   59%   60%   61%   62%   63%   64%   65%   66%   67%   68%   69%   70%   71%   72%   73%   74%   75%   76%   77%   78%   79%   80%   81%   82%   83%   84%   85%   86%   87%   88%   89%   90%   91%   92%   93%   94%   95%   96%   99%  100%  
 Determination of the impedances and powers
    0%  100%  
 Calculate the far field
   (FarField1)
   Using standard far field calculations
   Computation of the far field values in the frequency domain
  100%  
   Exporting of the far field values
  100%  
 --- Direction of incidence loop: 3 of 3
 Ray launching/tracing for RL-GO (all sources)
    0%    1%    2%    3%    4%    5%    6%    7%    8%    9%   10%   11%   12%   13%   14%   15%   16%   17%   18%   19%   20%   21%   22%   23%   24%   25%   26%   27%   28%   29%   30%   31%   32%   33%   34%   35%   36%   37%   38%   39%   40%   41%   42%   43%   44%   45%   46%   47%   48%   49%   50%   51%   52%   53%   54%   55%   56%   57%   58%   59%   60%   61%   62%   63%   64%   65%   66%   67%   68%   69%   70%   71%   72%   73%   74%   75%   76%   77%   78%   79%   80%   81%   82%   83%   84%   85%   86%   87%   88%   89%   90%   91%   92%   93%   94%   95%   96%   97%   98%   99%  100%  100%  
 Determination of the impedances and powers
  100%  
 Calculate the far field
   (FarField1)
   Using standard far field calculations
   Computation of the far field values in the frequency domain
  100%  
   Exporting of the far field values
  100%  

Finished


PS:

Read file <7673546.output> for stderr output of this job.

