Sender: LSF System <lsfadmin@b2055>
Subject: Job 7673547: <3-boat-7du-2L-modelMesh-hrrp-lowphi-3D> in cluster <magiccube3> Done

Job <3-boat-7du-2L-modelMesh-hrrp-lowphi-3D> was submitted from host <ln06> by user <tshu008> in cluster <magiccube3> at Fri Apr 26 23:01:15 2024
Job was executed on host(s) <32*b2055>, in queue <LS-DYNA>, as user <tshu008> in cluster <magiccube3> at Sun Apr 28 11:55:37 2024
                            <32*b2068>
                            <32*b2015>
                            <32*b2017>
                            <32*b2013>
                            <32*b2061>
                            <32*b2056>
                            <32*b2046>
</public/home/users/tshu008> was used as the home directory.
</public/home/users/tshu008/czh> was used as the working directory.
Started at Sun Apr 28 11:55:37 2024
Terminated at Sun Apr 28 12:50:26 2024
Results reported at Sun Apr 28 12:50:26 2024

Your job looked like:

------------------------------------------------------------
# LSBATCH: User input

#!/bin/bash
#BSUB -q snode
#BSUB -n 256
#BSUB -R "span[ptile=32]"
#BSUB -J 3-boat-7du-2L-modelMesh-hrrp-lowphi-3D
#BSUB -eo %J.output

CURDIR=$PWD
cd $CURDIR

APP_NAME=esource
NP=256
NP_PER_NODE=16
RUN="RAW"


#Create nodelist

rm -f nodelist
touch nodelist

#start creating .nodelist
for i in `echo $LSB_HOSTS`
do
echo $i >> $PWD/nodelist
done
NP=`cat $PWD/nodelist|wc -w`

NODELIST=""
for i in `cat $PWD/nodelist | sort | uniq`
do
NUM_PROC=`cat $PWD/nodelist | grep $i | wc -l`
if [ "$NODELIST" = "" ]; then
   NODELIST="['$i',$NUM_PROC]"
else
   NODELIST="$NODELIST,['$i',$NUM_PROC]"
fi
done

echo "NODELIST is $NODELIST"

export PATH=/public/home/users/tshu008/software/altair/feko/bin/:/public/home/users/hpcplusadmin1/h:/public/ibm/lsf10/10.1/linux3.10-glibc2.17-x86_64/etc:/public/ibm/lsf10/10.1/linux3.10-glibc2.17-x86_64/bin:/usr/lib64/qt-3.3/bin:/public/home/users/tshu008/perl5/bin:/opt/clusconf/bin:/usr/bin:/bin:/usr/sbin:/sbin:/usr/local/openssh/bin:/usr/local/sbin:/public/home/users/tshu008/.local/bin:/public/home/users/tshu008/bin
runfeko 3-boat-7du-2L-modelMesh-hrrp-lowphi-3D -np 256 --machines-file $LSB_DJOB_HOSTFILE



------------------------------------------------------------

Successfully completed.

Resource usage summary:

    CPU time :                                   103286.53 sec.
    Max Memory :                                 1105 MB
    Average Memory :                             1079.45 MB
    Total Requested Memory :                     -
    Delta Memory :                               -
    Max Swap :                                   142 MB
    Max Processes :                              49
    Max Threads :                                59
    Run time :                                   3289 sec.
    Turnaround time :                            136151 sec.

The output (if any) follows:

NODELIST is ['b2013',32],['b2015',32],['b2017',32],['b2046',32],['b2055',32],['b2056',32],['b2061',32],['b2068',32]

RUNFEKO Version 2017.1-14 from 2016-11-25
        Copyright (c) 1999-2014 Altair Development S.A. (Pty) Ltd
        Copyright (c) 2014-2017 Altair Engineering, Inc.

NOTE: Running CADFEKO_BATCH since file "3-boat-7du-2L-modelMesh-hrrp-lowphi-3D.pre" not found

CADFEKO_BATCH Version 2017.1-300391 (x64) from 2017-03-15
          Copyright (c) 1999-2014 Altair Development S.A. (Pty) Ltd
          Copyright (c) 2014-2017 Altair Engineering, Inc.

Loading mesh entities...... 50%100%
Building connectivity map......100%100%
Warning 16097: 'MeshImport_1' has not been remeshed because it is being used as the simulation mesh.
Mesh has been generated:
  34708 triangles
_ 50%100%100%
Saving cfm file......100%100%
Saving geometry......100%100%
NOTE: Running PREFEKO since file "3-boat-7du-2L-modelMesh-hrrp-lowphi-3D.fek" not found

PREFEKO Version 2017.1-34 from 2017-02-06
        Copyright (c) 1999-2014 Altair Development S.A. (Pty) Ltd
        Copyright (c) 2014-2017 Altair Engineering, Inc.


Creating file 3-boat-7du-2L-modelMesh-hrrp-lowphi-3D.fek, please be patient ...
File 3-boat-7du-2L-modelMesh-hrrp-lowphi-3D.fek has been created:
  34708 metallic triangles in free space

 

FEKO.CSV  Version 2017.1-403 from 2017-03-14
          Copyright (c) 1999-2014 Altair Development S.A. (Pty) Ltd
          Copyright (c) 2014-2017 Altair Engineering, Inc.

File:     3-boat-7du-2L-modelMesh-hrrp-lowphi-3D
Memory:   Unlimited, system allows maximum usage of 5.850 GByte
          (for parallel runs memory limit is per process)
          (installed memory 187.413 GByte, thereof free 177.316 GByte)

---> Process  104 of 256 active on b2017                       (PID:   158260) using 1 threads
---> Process    0 of 256 active on b2055                       (PID:   202807) using 1 threads
---> Process  128 of 256 active on b2013                       (PID:   221226) using 1 threads
---> Process   96 of 256 active on b2017                       (PID:   158252) using 1 threads
---> Process   98 of 256 active on b2017                       (PID:   158254) using 1 threads
---> Process   40 of 256 active on b2068                       (PID:   192363) using 1 threads
---> Process  100 of 256 active on b2017                       (PID:   158256) using 1 threads
---> Process    1 of 256 active on b2055                       (PID:   202808) using 1 threads
---> Process   97 of 256 active on b2017                       (PID:   158253) using 1 threads
---> Process  228 of 256 active on b2046                       (PID:   120357) using 1 threads
---> Process  136 of 256 active on b2013                       (PID:   221234) using 1 threads
---> Process  162 of 256 active on b2061                       (PID:   120761) using 1 threads
---> Process  137 of 256 active on b2013                       (PID:   221235) using 1 threads
---> Process    2 of 256 active on b2055                       (PID:   202809) using 1 threads
---> Process  240 of 256 active on b2046                       (PID:   120369) using 1 threads
---> Process  144 of 256 active on b2013                       (PID:   221242) using 1 threads
---> Process    4 of 256 active on b2055                       (PID:   202811) using 1 threads
---> Process   32 of 256 active on b2068                       (PID:   192355) using 1 threads
---> Process  168 of 256 active on b2061                       (PID:   120767) using 1 threads
---> Process   34 of 256 active on b2068                       (PID:   192357) using 1 threads
---> Process  130 of 256 active on b2013                       (PID:   221228) using 1 threads
---> Process  160 of 256 active on b2061                       (PID:   120759) using 1 threads
---> Process   33 of 256 active on b2068                       (PID:   192356) using 1 threads
---> Process   44 of 256 active on b2068                       (PID:   192367) using 1 threads
---> Process  164 of 256 active on b2061                       (PID:   120763) using 1 threads
---> Process  161 of 256 active on b2061                       (PID:   120760) using 1 threads
---> Process  232 of 256 active on b2046                       (PID:   120361) using 1 threads
---> Process   36 of 256 active on b2068                       (PID:   192359) using 1 threads
---> Process   48 of 256 active on b2068                       (PID:   192371) using 1 threads
---> Process  132 of 256 active on b2013                       (PID:   221230) using 1 threads
---> Process    9 of 256 active on b2055                       (PID:   202816) using 1 threads
---> Process  163 of 256 active on b2061                       (PID:   120762) using 1 threads
---> Process   52 of 256 active on b2068                       (PID:   192375) using 1 threads
---> Process  138 of 256 active on b2013                       (PID:   221236) using 1 threads
---> Process  170 of 256 active on b2061                       (PID:   120769) using 1 threads
---> Process   49 of 256 active on b2068                       (PID:   192372) using 1 threads
---> Process  140 of 256 active on b2013                       (PID:   221238) using 1 threads
---> Process    6 of 256 active on b2055                       (PID:   202813) using 1 threads
---> Process  108 of 256 active on b2017                       (PID:   158264) using 1 threads
---> Process  176 of 256 active on b2061                       (PID:   120775) using 1 threads
---> Process   42 of 256 active on b2068                       (PID:   192365) using 1 threads
---> Process  225 of 256 active on b2046                       (PID:   120354) using 1 threads
---> Process    8 of 256 active on b2055                       (PID:   202815) using 1 threads
---> Process  112 of 256 active on b2017                       (PID:   158268) using 1 threads
---> Process  169 of 256 active on b2061                       (PID:   120768) using 1 threads
---> Process   56 of 256 active on b2068                       (PID:   192379) using 1 threads
---> Process  226 of 256 active on b2046                       (PID:   120355) using 1 threads
---> Process  146 of 256 active on b2013                       (PID:   221244) using 1 threads
---> Process   16 of 256 active on b2055                       (PID:   202823) using 1 threads
---> Process  110 of 256 active on b2017                       (PID:   158266) using 1 threads
---> Process  166 of 256 active on b2061                       (PID:   120765) using 1 threads
---> Process   50 of 256 active on b2068                       (PID:   192373) using 1 threads
---> Process  224 of 256 active on b2046                       (PID:   120353) using 1 threads
---> Process  133 of 256 active on b2013                       (PID:   221231) using 1 threads
---> Process   18 of 256 active on b2055                       (PID:   202825) using 1 threads
---> Process  113 of 256 active on b2017                       (PID:   158269) using 1 threads
---> Process  165 of 256 active on b2061                       (PID:   120764) using 1 threads
---> Process   54 of 256 active on b2068                       (PID:   192377) using 1 threads
---> Process  229 of 256 active on b2046                       (PID:   120358) using 1 threads
---> Process  148 of 256 active on b2013                       (PID:   221246) using 1 threads
---> Process   10 of 256 active on b2055                       (PID:   202817) using 1 threads
---> Process  106 of 256 active on b2017                       (PID:   158262) using 1 threads
---> Process  179 of 256 active on b2061                       (PID:   120778) using 1 threads
---> Process   35 of 256 active on b2068                       (PID:   192358) using 1 threads
---> Process  241 of 256 active on b2046                       (PID:   120370) using 1 threads
---> Process  129 of 256 active on b2013                       (PID:   221227) using 1 threads
---> Process   26 of 256 active on b2055                       (PID:   202833) using 1 threads
---> Process  101 of 256 active on b2017                       (PID:   158257) using 1 threads
---> Process  167 of 256 active on b2061                       (PID:   120766) using 1 threads
---> Process   53 of 256 active on b2068                       (PID:   192376) using 1 threads
---> Process  234 of 256 active on b2046                       (PID:   120363) using 1 threads
---> Process  152 of 256 active on b2013                       (PID:   221250) using 1 threads
---> Process   12 of 256 active on b2055                       (PID:   202819) using 1 threads
---> Process  115 of 256 active on b2017                       (PID:   158271) using 1 threads
---> Process  171 of 256 active on b2061                       (PID:   120770) using 1 threads
---> Process   51 of 256 active on b2068                       (PID:   192374) using 1 threads
---> Process  230 of 256 active on b2046                       (PID:   120359) using 1 threads
---> Process  145 of 256 active on b2013                       (PID:   221243) using 1 threads
---> Process   17 of 256 active on b2055                       (PID:   202824) using 1 threads
---> Process  120 of 256 active on b2017                       (PID:   158276) using 1 threads
---> Process  172 of 256 active on b2061                       (PID:   120771) using 1 threads
---> Process   37 of 256 active on b2068                       (PID:   192360) using 1 threads
---> Process  248 of 256 active on b2046                       (PID:   120377) using 1 threads
---> Process  131 of 256 active on b2013                       (PID:   221229) using 1 threads
---> Process   14 of 256 active on b2055                       (PID:   202821) using 1 threads
---> Process  114 of 256 active on b2017                       (PID:   158270) using 1 threads
---> Process  180 of 256 active on b2061                       (PID:   120779) using 1 threads
---> Process   57 of 256 active on b2068                       (PID:   192380) using 1 threads
---> Process  227 of 256 active on b2046                       (PID:   120356) using 1 threads
---> Process  134 of 256 active on b2013                       (PID:   221232) using 1 threads
---> Process   24 of 256 active on b2055                       (PID:   202831) using 1 threads
---> Process  105 of 256 active on b2017                       (PID:   158261) using 1 threads
---> Process  177 of 256 active on b2061                       (PID:   120776) using 1 threads
---> Process   41 of 256 active on b2068                       (PID:   192364) using 1 threads
---> Process  244 of 256 active on b2046                       (PID:   120373) using 1 threads
---> Process  156 of 256 active on b2013                       (PID:   221254) using 1 threads
---> Process   25 of 256 active on b2055                       (PID:   202832) using 1 threads
---> Process  117 of 256 active on b2017                       (PID:   158273) using 1 threads
---> Process  178 of 256 active on b2061                       (PID:   120777) using 1 threads
---> Process   43 of 256 active on b2068                       (PID:   192366) using 1 threads
---> Process  242 of 256 active on b2046                       (PID:   120371) using 1 threads
---> Process  139 of 256 active on b2013                       (PID:   221237) using 1 threads
---> Process   19 of 256 active on b2055                       (PID:   202826) using 1 threads
---> Process  102 of 256 active on b2017                       (PID:   158258) using 1 threads
---> Process  174 of 256 active on b2061                       (PID:   120773) using 1 threads
---> Process   58 of 256 active on b2068                       (PID:   192381) using 1 threads
---> Process  233 of 256 active on b2046                       (PID:   120362) using 1 threads
---> Process  141 of 256 active on b2013                       (PID:   221239) using 1 threads
---> Process   28 of 256 active on b2055                       (PID:   202835) using 1 threads
---> Process  116 of 256 active on b2017                       (PID:   158272) using 1 threads
---> Process  182 of 256 active on b2061                       (PID:   120781) using 1 threads
---> Process   60 of 256 active on b2068                       (PID:   192383) using 1 threads
---> Process  252 of 256 active on b2046                       (PID:   120381) using 1 threads
---> Process  142 of 256 active on b2013                       (PID:   221240) using 1 threads
---> Process   20 of 256 active on b2055                       (PID:   202827) using 1 threads
---> Process   99 of 256 active on b2017                       (PID:   158255) using 1 threads
---> Process  190 of 256 active on b2061                       (PID:   120789) using 1 threads
---> Process   45 of 256 active on b2068                       (PID:   192368) using 1 threads
---> Process  231 of 256 active on b2046                       (PID:   120360) using 1 threads
---> Process  147 of 256 active on b2013                       (PID:   221245) using 1 threads
---> Process    7 of 256 active on b2055                       (PID:   202814) using 1 threads
---> Process  124 of 256 active on b2017                       (PID:   158280) using 1 threads
---> Process  173 of 256 active on b2061                       (PID:   120772) using 1 threads
---> Process   46 of 256 active on b2068                       (PID:   192369) using 1 threads
---> Process  250 of 256 active on b2046                       (PID:   120379) using 1 threads
---> Process  149 of 256 active on b2013                       (PID:   221247) using 1 threads
---> Process   21 of 256 active on b2055                       (PID:   202828) using 1 threads
---> Process  109 of 256 active on b2017                       (PID:   158265) using 1 threads
---> Process  181 of 256 active on b2061                       (PID:   120780) using 1 threads
---> Process   38 of 256 active on b2068                       (PID:   192361) using 1 threads
---> Process  236 of 256 active on b2046                       (PID:   120365) using 1 threads
---> Process  153 of 256 active on b2013                       (PID:   221251) using 1 threads
---> Process   13 of 256 active on b2055                       (PID:   202820) using 1 threads
---> Process  111 of 256 active on b2017                       (PID:   158267) using 1 threads
---> Process  175 of 256 active on b2061                       (PID:   120774) using 1 threads
---> Process   55 of 256 active on b2068                       (PID:   192378) using 1 threads
---> Process  246 of 256 active on b2046                       (PID:   120375) using 1 threads
---> Process  135 of 256 active on b2013                       (PID:   221233) using 1 threads
---> Process   29 of 256 active on b2055                       (PID:   202836) using 1 threads
---> Process  121 of 256 active on b2017                       (PID:   158277) using 1 threads
---> Process  186 of 256 active on b2061                       (PID:   120785) using 1 threads
---> Process   39 of 256 active on b2068                       (PID:   192362) using 1 threads
---> Process  249 of 256 active on b2046                       (PID:   120378) using 1 threads
---> Process  154 of 256 active on b2013                       (PID:   221252) using 1 threads
---> Process  193 of 256 active on b2056                       (PID:   165985) using 1 threads
---> Process   69 of 256 active on b2015                       (PID:   201856) using 1 threads
---> Process   11 of 256 active on b2055                       (PID:   202818) using 1 threads
---> Process  107 of 256 active on b2017                       (PID:   158263) using 1 threads
---> Process  183 of 256 active on b2061                       (PID:   120782) using 1 threads
---> Process   47 of 256 active on b2068                       (PID:   192370) using 1 threads
---> Process  251 of 256 active on b2046                       (PID:   120380) using 1 threads
---> Process  143 of 256 active on b2013                       (PID:   221241) using 1 threads
---> Process  204 of 256 active on b2056                       (PID:   165996) using 1 threads
---> Process   70 of 256 active on b2015                       (PID:   201857) using 1 threads
---> Process   15 of 256 active on b2055                       (PID:   202822) using 1 threads
---> Process  125 of 256 active on b2017                       (PID:   158281) using 1 threads
---> Process  184 of 256 active on b2061                       (PID:   120783) using 1 threads
---> Process   59 of 256 active on b2068                       (PID:   192382) using 1 threads
---> Process  238 of 256 active on b2046                       (PID:   120367) using 1 threads
---> Process  157 of 256 active on b2013                       (PID:   221255) using 1 threads
---> Process  205 of 256 active on b2056                       (PID:   165997) using 1 threads
---> Process   77 of 256 active on b2015                       (PID:   201864) using 1 threads
---> Process   22 of 256 active on b2055                       (PID:   202829) using 1 threads
---> Process  103 of 256 active on b2017                       (PID:   158259) using 1 threads
---> Process  185 of 256 active on b2061                       (PID:   120784) using 1 threads
---> Process   61 of 256 active on b2068                       (PID:   192384) using 1 threads
---> Process  235 of 256 active on b2046                       (PID:   120364) using 1 threads
---> Process  158 of 256 active on b2013                       (PID:   221256) using 1 threads
---> Process  195 of 256 active on b2056                       (PID:   165987) using 1 threads
---> Process   76 of 256 active on b2015                       (PID:   201863) using 1 threads
---> Process   27 of 256 active on b2055                       (PID:   202834) using 1 threads
---> Process  122 of 256 active on b2017                       (PID:   158278) using 1 threads
---> Process  187 of 256 active on b2061                       (PID:   120786) using 1 threads
---> Process   62 of 256 active on b2068                       (PID:   192385) using 1 threads
---> Process  253 of 256 active on b2046                       (PID:   120382) using 1 threads
---> Process  159 of 256 active on b2013                       (PID:   221257) using 1 threads
---> Process  201 of 256 active on b2056                       (PID:   165993) using 1 threads
---> Process   81 of 256 active on b2015                       (PID:   201868) using 1 threads
---> Process    5 of 256 active on b2055                       (PID:   202812) using 1 threads
---> Process  127 of 256 active on b2017                       (PID:   158283) using 1 threads
---> Process  191 of 256 active on b2061                       (PID:   120790) using 1 threads
---> Process   63 of 256 active on b2068                       (PID:   192386) using 1 threads
---> Process  254 of 256 active on b2046                       (PID:   120383) using 1 threads
---> Process  150 of 256 active on b2013                       (PID:   221248) using 1 threads
---> Process  202 of 256 active on b2056                       (PID:   165994) using 1 threads
---> Process   74 of 256 active on b2015                       (PID:   201861) using 1 threads
---> Process   23 of 256 active on b2055                       (PID:   202830) using 1 threads
---> Process  119 of 256 active on b2017                       (PID:   158275) using 1 threads
---> Process  189 of 256 active on b2061                       (PID:   120788) using 1 threads
---> Process  245 of 256 active on b2046                       (PID:   120374) using 1 threads
---> Process  151 of 256 active on b2013                       (PID:   221249) using 1 threads
---> Process  197 of 256 active on b2056                       (PID:   165989) using 1 threads
---> Process   84 of 256 active on b2015                       (PID:   201871) using 1 threads
---> Process   30 of 256 active on b2055                       (PID:   202837) using 1 threads
---> Process  118 of 256 active on b2017                       (PID:   158274) using 1 threads
---> Process  188 of 256 active on b2061                       (PID:   120787) using 1 threads
---> Process  243 of 256 active on b2046                       (PID:   120372) using 1 threads
---> Process  194 of 256 active on b2056                       (PID:   165986) using 1 threads
---> Process   82 of 256 active on b2015                       (PID:   201869) using 1 threads
---> Process  126 of 256 active on b2017                       (PID:   158282) using 1 threads
---> Process  247 of 256 active on b2046                       (PID:   120376) using 1 threads
---> Process  155 of 256 active on b2013                       (PID:   221253) using 1 threads
---> Process  203 of 256 active on b2056                       (PID:   165995) using 1 threads
---> Process   67 of 256 active on b2015                       (PID:   201854) using 1 threads
---> Process  123 of 256 active on b2017                       (PID:   158279) using 1 threads
---> Process  237 of 256 active on b2046                       (PID:   120366) using 1 threads
---> Process  198 of 256 active on b2056                       (PID:   165990) using 1 threads
---> Process   65 of 256 active on b2015                       (PID:   201852) using 1 threads
---> Process    3 of 256 active on b2055                       (PID:   202810) using 1 threads
---> Process  239 of 256 active on b2046                       (PID:   120368) using 1 threads
---> Process  209 of 256 active on b2056                       (PID:   166001) using 1 threads
---> Process   73 of 256 active on b2015                       (PID:   201860) using 1 threads
---> Process   31 of 256 active on b2055                       (PID:   202838) using 1 threads
---> Process  255 of 256 active on b2046                       (PID:   120384) using 1 threads
---> Process  218 of 256 active on b2056                       (PID:   166010) using 1 threads
---> Process   75 of 256 active on b2015                       (PID:   201862) using 1 threads
---> Process  210 of 256 active on b2056                       (PID:   166002) using 1 threads
---> Process   78 of 256 active on b2015                       (PID:   201865) using 1 threads
---> Process  200 of 256 active on b2056                       (PID:   165992) using 1 threads
---> Process   68 of 256 active on b2015                       (PID:   201855) using 1 threads
---> Process  208 of 256 active on b2056                       (PID:   166000) using 1 threads
---> Process   72 of 256 active on b2015                       (PID:   201859) using 1 threads
---> Process  196 of 256 active on b2056                       (PID:   165988) using 1 threads
---> Process   80 of 256 active on b2015                       (PID:   201867) using 1 threads
---> Process  206 of 256 active on b2056                       (PID:   165998) using 1 threads
---> Process   86 of 256 active on b2015                       (PID:   201873) using 1 threads
---> Process  199 of 256 active on b2056                       (PID:   165991) using 1 threads
---> Process   83 of 256 active on b2015                       (PID:   201870) using 1 threads
---> Process  211 of 256 active on b2056                       (PID:   166003) using 1 threads
---> Process   85 of 256 active on b2015                       (PID:   201872) using 1 threads
---> Process  214 of 256 active on b2056                       (PID:   166006) using 1 threads
---> Process   64 of 256 active on b2015                       (PID:   201851) using 1 threads
---> Process  212 of 256 active on b2056                       (PID:   166004) using 1 threads
---> Process   91 of 256 active on b2015                       (PID:   201878) using 1 threads
---> Process  217 of 256 active on b2056                       (PID:   166009) using 1 threads
---> Process   71 of 256 active on b2015                       (PID:   201858) using 1 threads
---> Process  192 of 256 active on b2056                       (PID:   165984) using 1 threads
---> Process   89 of 256 active on b2015                       (PID:   201876) using 1 threads
---> Process  207 of 256 active on b2056                       (PID:   165999) using 1 threads
---> Process   66 of 256 active on b2015                       (PID:   201853) using 1 threads
---> Process  220 of 256 active on b2056                       (PID:   166012) using 1 threads
---> Process   79 of 256 active on b2015                       (PID:   201866) using 1 threads
---> Process  215 of 256 active on b2056                       (PID:   166007) using 1 threads
---> Process   92 of 256 active on b2015                       (PID:   201879) using 1 threads
---> Process  216 of 256 active on b2056                       (PID:   166008) using 1 threads
---> Process   87 of 256 active on b2015                       (PID:   201874) using 1 threads
---> Process  221 of 256 active on b2056                       (PID:   166013) using 1 threads
---> Process   94 of 256 active on b2015                       (PID:   201881) using 1 threads
---> Process  219 of 256 active on b2056                       (PID:   166011) using 1 threads
---> Process   95 of 256 active on b2015                       (PID:   201882) using 1 threads
---> Process  223 of 256 active on b2056                       (PID:   166015) using 1 threads
---> Process   88 of 256 active on b2015                       (PID:   201875) using 1 threads
---> Process  213 of 256 active on b2056                       (PID:   166005) using 1 threads
---> Process   90 of 256 active on b2015                       (PID:   201877) using 1 threads
---> Process  222 of 256 active on b2056                       (PID:   166014) using 1 threads
---> Process   93 of 256 active on b2015                       (PID:   201880) using 1 threads
 Processing the geometrical data for triangles
    0%  100%  
 Processing the geometric data for UTD/RL-GO regions
 Checking the geometrical input data
 --- Processing frequency 1 of 150 ( 9.30000E+09 Hz)
 --- Direction of incidence loop: 1 of 3
 +++ Processing configuration: StandardConfiguration1
 Checking the geometrical input data (frequency dependent)
 Ray launching/tracing for RL-GO (all sources)
    0%   15%   28%   39%   52%   64%   78%   90%  100%  
 --> Currently a memory of 17.626 MByte has been allocated per process
     In total, this corresponds to 4.406 GByte for all processes
     (peak memory usage of 24.099 MByte per process so far)
 Determination of the impedances and powers
    0%  100%  
 Calculate the far field
   (FarField1)
   Using standard far field calculations
   Computation of the far field values in the frequency domain
  100%  
   Exporting of the far field values
  100%  
 --- Direction of incidence loop: 2 of 3
 Ray launching/tracing for RL-GO (all sources)
    5%   12%   23%   36%   50%   64%   76%   88%  100%  
 Determination of the impedances and powers
    0%  100%  
 Calculate the far field
   (FarField1)
   Using standard far field calculations
   Computation of the far field values in the frequency domain
  100%  
   Exporting of the far field values
  100%  
 --- Direction of incidence loop: 3 of 3
 Ray launching/tracing for RL-GO (all sources)
    7%   10%   12%   14%   16%   19%   23%   27%   31%   35%   38%   42%   45%   48%   50%   52%   55%   58%   61%   64%   68%   72%   77%   81%   85%   89%   94%  100%  
 Determination of the impedances and powers
    0%  100%  
 Calculate the far field
   (FarField1)
   Using standard far field calculations
   Computation of the far field values in the frequency domain
  100%  
   Exporting of the far field values
  100%  
 --- Processing frequency 2 of 150 ( 9.30134E+09 Hz)
 --- Direction of incidence loop: 1 of 3
 Checking the geometrical input data (frequency dependent)
 Ray launching/tracing for RL-GO (all sources)
   14%   27%   38%   51%   63%   77%   89%  100%  
 Determination of the impedances and powers
    0%  100%  
 Calculate the far field
   (FarField1)
   Using standard far field calculations
   Computation of the far field values in the frequency domain
  100%  
   Exporting of the far field values
  100%  
 --- Direction of incidence loop: 2 of 3
 Ray launching/tracing for RL-GO (all sources)
   10%   20%   30%   43%   60%   70%   84%   95%  100%  
 Determination of the impedances and powers
    0%  100%  
 Calculate the far field
   (FarField1)
   Using standard far field calculations
   Computation of the far field values in the frequency domain
  100%  
   Exporting of the far field values
  100%  
 --- Direction of incidence loop: 3 of 3
 Ray launching/tracing for RL-GO (all sources)
    7%   11%   13%   16%   18%   21%   25%   29%   33%   37%   40%   43%   46%   50%   52%   55%   57%   61%   64%   68%   71%   75%   80%   84%   87%   91%  100%  
 Determination of the impedances and powers
    0%  100%  
 Calculate the far field
   (FarField1)
   Using standard far field calculations
   Computation of the far field values in the frequency domain
  100%  
   Exporting of the far field values
  100%  
 --- Processing frequency 3 of 150 ( 9.30268E+09 Hz)
 --- Direction of incidence loop: 1 of 3
 Checking the geometrical input data (frequency dependent)
 Ray launching/tracing for RL-GO (all sources)
   10%   24%   35%   48%   60%   73%   86%   96%  100%  
 Determination of the impedances and powers
    0%  100%  
 Calculate the far field
   (FarField1)
   Using standard far field calculations
   Computation of the far field values in the frequency domain
  100%  
   Exporting of the far field values
  100%  
 --- Direction of incidence loop: 2 of 3
 Ray launching/tracing for RL-GO (all sources)
   10%   20%   30%   43%   60%   70%   84%   95%  100%  
 Determination of the impedances and powers
    0%  100%  
 Calculate the far field
   (FarField1)
   Using standard far field calculations
   Computation of the far field values in the frequency domain
  100%  
   Exporting of the far field values
  100%  
 --- Direction of incidence loop: 3 of 3
 Ray launching/tracing for RL-GO (all sources)
    6%   10%   13%   15%   17%   21%   24%   28%   32%   36%   39%   43%   46%   50%   52%   55%   57%   61%   64%   68%   71%   75%   80%   84%   87%   91%  100%  
 Determination of the impedances and powers
    0%  100%  
 Calculate the far field
   (FarField1)
   Using standard far field calculations
   Computation of the far field values in the frequency domain
  100%  
   Exporting of the far field values
  100%  
 --- Processing frequency 4 of 150 ( 9.30403E+09 Hz)
 --- Direction of incidence loop: 1 of 3
 Checking the geometrical input data (frequency dependent)
 Ray launching/tracing for RL-GO (all sources)
   14%   27%   39%   52%   63%   78%   89%  100%  
 Determination of the impedances and powers
    0%  100%  
 Calculate the far field
   (FarField1)
   Using standard far field calculations
   Computation of the far field values in the frequency domain
  100%  
   Exporting of the far field values
  100%  
 --- Direction of incidence loop: 2 of 3
 Ray launching/tracing for RL-GO (all sources)
   10%   20%   30%   43%   60%   71%   84%   95%  100%  
 Determination of the impedances and powers
    0%  100%  
 Calculate the far field
   (FarField1)
   Using standard far field calculations
   Computation of the far field values in the frequency domain
  100%  
   Exporting of the far field values
  100%  
 --- Direction of incidence loop: 3 of 3
 Ray launching/tracing for RL-GO (all sources)
    6%   10%   13%   15%   17%   21%   24%   28%   32%   36%   39%   43%   46%   50%   52%   55%   57%   61%   64%   68%   71%   75%   80%   84%   87%   91%  100%  
 Determination of the impedances and powers
    0%  100%  
 Calculate the far field
   (FarField1)
   Using standard far field calculations
   Computation of the far field values in the frequency domain
  100%  
   Exporting of the far field values
  100%  
 --- Processing frequency 5 of 150 ( 9.30537E+09 Hz)
 --- Direction of incidence loop: 1 of 3
 Checking the geometrical input data (frequency dependent)
 Ray launching/tracing for RL-GO (all sources)
   14%   27%   38%   51%   63%   77%   89%  100%  
 Determination of the impedances and powers
    0%  100%  
 Calculate the far field
   (FarField1)
   Using standard far field calculations
   Computation of the far field values in the frequency domain
  100%  
   Exporting of the far field values
  100%  
 --- Direction of incidence loop: 2 of 3
 Ray launching/tracing for RL-GO (all sources)
   10%   20%   29%   43%   60%   70%   84%   95%  100%  
 Determination of the impedances and powers
    0%  100%  
 Calculate the far field
   (FarField1)
   Using standard far field calculations
   Computation of the far field values in the frequency domain
  100%  
   Exporting of the far field values
  100%  
 --- Direction of incidence loop: 3 of 3
 Ray launching/tracing for RL-GO (all sources)
    7%   11%   13%   16%   18%   21%   25%   29%   33%   37%   40%   44%   47%   50%   52%   55%   57%   61%   64%   68%   71%   75%   80%   84%   87%   91%  100%  
 Determination of the impedances and powers
    0%  100%  
 Calculate the far field
   (FarField1)
   Using standard far field calculations
   Computation of the far field values in the frequency domain
  100%  
   Exporting of the far field values
  100%  
 --- Processing frequency 6 of 150 ( 9.30671E+09 Hz)
 --- Direction of incidence loop: 1 of 3
 Checking the geometrical input data (frequency dependent)
 Ray launching/tracing for RL-GO (all sources)
   10%   21%   32%   44%   57%   69%   82%   93%  100%  
 Determination of the impedances and powers
    0%  100%  
 Calculate the far field
   (FarField1)
   Using standard far field calculations
   Computation of the far field values in the frequency domain
  100%  
   Exporting of the far field values
  100%  
 --- Direction of incidence loop: 2 of 3
 Ray launching/tracing for RL-GO (all sources)
   10%   20%   29%   43%   60%   70%   84%   95%  100%  
 Determination of the impedances and powers
    0%  100%  
 Calculate the far field
   (FarField1)
   Using standard far field calculations
   Computation of the far field values in the frequency domain
  100%  
   Exporting of the far field values
  100%  
 --- Direction of incidence loop: 3 of 3
 Ray launching/tracing for RL-GO (all sources)
    6%   10%   13%   15%   17%   21%   24%   28%   32%   36%   39%   43%   46%   49%   51%   53%   57%   59%   62%   66%   70%   74%   79%   83%   86%   90%   97%  100%  
 Determination of the impedances and powers
    0%  100%  
 Calculate the far field
   (FarField1)
   Using standard far field calculations
   Computation of the far field values in the frequency domain
  100%  
   Exporting of the far field values
  100%  
 --- Processing frequency 7 of 150 ( 9.30805E+09 Hz)
 --- Direction of incidence loop: 1 of 3
 Checking the geometrical input data (frequency dependent)
 Ray launching/tracing for RL-GO (all sources)
   10%   23%   35%   47%   59%   72%   86%   95%  100%  
 Determination of the impedances and powers
    0%  100%  
 Calculate the far field
   (FarField1)
   Using standard far field calculations
   Computation of the far field values in the frequency domain
  100%  
   Exporting of the far field values
  100%  
 --- Direction of incidence loop: 2 of 3
 Ray launching/tracing for RL-GO (all sources)
   10%   20%   29%   43%   60%   70%   84%   95%  100%  
 Determination of the impedances and powers
    0%  100%  
 Calculate the far field
   (FarField1)
   Using standard far field calculations
   Computation of the far field values in the frequency domain
  100%  
   Exporting of the far field values
  100%  
 --- Direction of incidence loop: 3 of 3
 Ray launching/tracing for RL-GO (all sources)
    6%   10%   13%   15%   17%   21%   24%   28%   32%   36%   39%   42%   45%   48%   51%   53%   55%   57%   60%   64%   67%   70%   75%   79%   83%   86%   90%   95%  100%  
 Determination of the impedances and powers
    0%  100%  
 Calculate the far field
   (FarField1)
   Using standard far field calculations
   Computation of the far field values in the frequency domain
  100%  
   Exporting of the far field values
  100%  
 --- Processing frequency 8 of 150 ( 9.30940E+09 Hz)
 --- Direction of incidence loop: 1 of 3
 Checking the geometrical input data (frequency dependent)
 Ray launching/tracing for RL-GO (all sources)
   14%   28%   39%   51%   64%   77%   90%  100%  
 Determination of the impedances and powers
    0%  100%  
 Calculate the far field
   (FarField1)
   Using standard far field calculations
   Computation of the far field values in the frequency domain
  100%  
   Exporting of the far field values
  100%  
 --- Direction of incidence loop: 2 of 3
 Ray launching/tracing for RL-GO (all sources)
   10%   20%   30%   43%   60%   70%   84%   95%  100%  
 Determination of the impedances and powers
    0%  100%  
 Calculate the far field
   (FarField1)
   Using standard far field calculations
   Computation of the far field values in the frequency domain
  100%  
   Exporting of the far field values
  100%  
 --- Direction of incidence loop: 3 of 3
 Ray launching/tracing for RL-GO (all sources)
    6%   10%   13%   15%   17%   21%   24%   28%   32%   36%   39%   43%   46%   50%   52%   55%   57%   61%   64%   68%   71%   75%   80%   84%   87%   91%  100%  
 Determination of the impedances and powers
    0%  100%  
 Calculate the far field
   (FarField1)
   Using standard far field calculations
   Computation of the far field values in the frequency domain
  100%  
   Exporting of the far field values
  100%  
 --- Processing frequency 9 of 150 ( 9.31074E+09 Hz)
 --- Direction of incidence loop: 1 of 3
 Checking the geometrical input data (frequency dependent)
 Ray launching/tracing for RL-GO (all sources)
   13%   27%   38%   51%   62%   76%   89%  100%  
 Determination of the impedances and powers
    0%  100%  
 Calculate the far field
   (FarField1)
   Using standard far field calculations
   Computation of the far field values in the frequency domain
  100%  
   Exporting of the far field values
  100%  
 --- Direction of incidence loop: 2 of 3
 Ray launching/tracing for RL-GO (all sources)
    9%   19%   28%   42%   58%   68%   83%   94%  100%  
 Determination of the impedances and powers
    0%  100%  
 Calculate the far field
   (FarField1)
   Using standard far field calculations
   Computation of the far field values in the frequency domain
  100%  
   Exporting of the far field values
  100%  
 --- Direction of incidence loop: 3 of 3
 Ray launching/tracing for RL-GO (all sources)
    6%   10%   13%   15%   17%   21%   24%   28%   32%   36%   39%   43%   46%   50%   52%   55%   57%   61%   64%   68%   71%   75%   80%   84%   87%   91%  100%  
 Determination of the impedances and powers
    0%  100%  
 Calculate the far field
   (FarField1)
   Using standard far field calculations
   Computation of the far field values in the frequency domain
  100%  
   Exporting of the far field values
  100%  
 --- Processing frequency 10 of 150 ( 9.31208E+09 Hz)
 --- Direction of incidence loop: 1 of 3
 Checking the geometrical input data (frequency dependent)
 Ray launching/tracing for RL-GO (all sources)
   14%   28%   39%   51%   64%   78%   90%  100%  
 Determination of the impedances and powers
    0%  100%  
 Calculate the far field
   (FarField1)
   Using standard far field calculations
   Computation of the far field values in the frequency domain
  100%  
   Exporting of the far field values
  100%  
 --- Direction of incidence loop: 2 of 3
 Ray launching/tracing for RL-GO (all sources)
   10%   19%   28%   42%   59%   68%   83%   94%  100%  
 Determination of the impedances and powers
    0%  100%  
 Calculate the far field
   (FarField1)
   Using standard far field calculations
   Computation of the far field values in the frequency domain
  100%  
   Exporting of the far field values
  100%  
 --- Direction of incidence loop: 3 of 3
 Ray launching/tracing for RL-GO (all sources)
    6%    9%   12%   15%   17%   20%   24%   28%   32%   36%   38%   42%   45%   48%   51%   53%   55%   57%   61%   64%   68%   71%   75%   80%   84%   87%   91%  100%  
 Determination of the impedances and powers
    0%  100%  
 Calculate the far field
   (FarField1)
   Using standard far field calculations
   Computation of the far field values in the frequency domain
  100%  
   Exporting of the far field values
  100%  
 --- Processing frequency 11 of 150 ( 9.31342E+09 Hz)
 --- Direction of incidence loop: 1 of 3
 Checking the geometrical input data (frequency dependent)
 Ray launching/tracing for RL-GO (all sources)
   13%   27%   38%   51%   62%   76%   88%  100%  
 Determination of the impedances and powers
    0%  100%  
 Calculate the far field
   (FarField1)
   Using standard far field calculations
   Computation of the far field values in the frequency domain
  100%  
   Exporting of the far field values
  100%  
 --- Direction of incidence loop: 2 of 3
 Ray launching/tracing for RL-GO (all sources)
   10%   20%   29%   43%   59%   69%   82%   93%  100%  
 Determination of the impedances and powers
    0%  100%  
 Calculate the far field
   (FarField1)
   Using standard far field calculations
   Computation of the far field values in the frequency domain
  100%  
   Exporting of the far field values
  100%  
 --- Direction of incidence loop: 3 of 3
 Ray launching/tracing for RL-GO (all sources)
    6%   10%   13%   15%   17%   21%   24%   28%   32%   36%   39%   43%   46%   50%   52%   55%   57%   61%   64%   68%   71%   75%   80%   84%   87%   91%  100%  
 Determination of the impedances and powers
    0%  100%  
 Calculate the far field
   (FarField1)
   Using standard far field calculations
   Computation of the far field values in the frequency domain
  100%  
   Exporting of the far field values
  100%  
 --- Processing frequency 12 of 150 ( 9.31477E+09 Hz)
 --- Direction of incidence loop: 1 of 3
 Checking the geometrical input data (frequency dependent)
 Ray launching/tracing for RL-GO (all sources)
   14%   28%   39%   51%   64%   77%   89%  100%  
 Determination of the impedances and powers
    0%  100%  
 Calculate the far field
   (FarField1)
   Using standard far field calculations
   Computation of the far field values in the frequency domain
  100%  
   Exporting of the far field values
  100%  
 --- Direction of incidence loop: 2 of 3
 Ray launching/tracing for RL-GO (all sources)
    8%   17%   26%   40%   55%   68%   80%   91%  100%  
 Determination of the impedances and powers
    0%  100%  
 Calculate the far field
   (FarField1)
   Using standard far field calculations
   Computation of the far field values in the frequency domain
  100%  
   Exporting of the far field values
  100%  
 --- Direction of incidence loop: 3 of 3
 Ray launching/tracing for RL-GO (all sources)
    6%   10%   13%   15%   17%   21%   24%   28%   32%   36%   39%   43%   46%   50%   52%   55%   57%   61%   64%   68%   70%   75%   79%   83%   87%   91%  100%  
 Determination of the impedances and powers
    0%  100%  
 Calculate the far field
   (FarField1)
   Using standard far field calculations
   Computation of the far field values in the frequency domain
  100%  
   Exporting of the far field values
  100%  
 --- Processing frequency 13 of 150 ( 9.31611E+09 Hz)
 --- Direction of incidence loop: 1 of 3
 Checking the geometrical input data (frequency dependent)
 Ray launching/tracing for RL-GO (all sources)
   14%   28%   39%   51%   64%   77%   90%  100%  
 Determination of the impedances and powers
    0%  100%  
 Calculate the far field
   (FarField1)
   Using standard far field calculations
   Computation of the far field values in the frequency domain
  100%  
   Exporting of the far field values
  100%  
 --- Direction of incidence loop: 2 of 3
 Ray launching/tracing for RL-GO (all sources)
    8%   17%   27%   41%   56%   69%   82%   91%  100%  
 Determination of the impedances and powers
    0%  100%  
 Calculate the far field
   (FarField1)
   Using standard far field calculations
   Computation of the far field values in the frequency domain
  100%  
   Exporting of the far field values
  100%  
 --- Direction of incidence loop: 3 of 3
 Ray launching/tracing for RL-GO (all sources)
    6%   10%   13%   15%   17%   21%   24%   28%   32%   36%   39%   43%   46%   50%   52%   55%   57%   60%   64%   67%   70%   74%   79%   83%   86%   90%   99%  100%  
 Determination of the impedances and powers
    0%  100%  
 Calculate the far field
   (FarField1)
   Using standard far field calculations
   Computation of the far field values in the frequency domain
  100%  
   Exporting of the far field values
  100%  
 --- Processing frequency 14 of 150 ( 9.31745E+09 Hz)
 --- Direction of incidence loop: 1 of 3
 Checking the geometrical input data (frequency dependent)
 Ray launching/tracing for RL-GO (all sources)
   14%   28%   39%   51%   64%   77%   89%  100%  
 Determination of the impedances and powers
    0%  100%  
 Calculate the far field
   (FarField1)
   Using standard far field calculations
   Computation of the far field values in the frequency domain
  100%  
   Exporting of the far field values
  100%  
 --- Direction of incidence loop: 2 of 3
 Ray launching/tracing for RL-GO (all sources)
    8%   17%   27%   41%   56%   67%   78%   87%   98%  100%  
 Determination of the impedances and powers
    0%  100%  
 Calculate the far field
   (FarField1)
   Using standard far field calculations
   Computation of the far field values in the frequency domain
  100%  
   Exporting of the far field values
  100%  
 --- Direction of incidence loop: 3 of 3
 Ray launching/tracing for RL-GO (all sources)
    6%   10%   13%   15%   17%   21%   24%   28%   32%   36%   39%   43%   46%   49%   51%   53%   56%   58%   62%   66%   70%   74%   79%   83%   86%   90%   98%  100%  
 Determination of the impedances and powers
    0%  100%  
 Calculate the far field
   (FarField1)
   Using standard far field calculations
   Computation of the far field values in the frequency domain
  100%  
   Exporting of the far field values
  100%  
 --- Processing frequency 15 of 150 ( 9.31879E+09 Hz)
 --- Direction of incidence loop: 1 of 3
 Checking the geometrical input data (frequency dependent)
 Ray launching/tracing for RL-GO (all sources)
   14%   27%   37%   50%   62%   75%   88%  100%  
 Determination of the impedances and powers
    0%  100%  
 Calculate the far field
   (FarField1)
   Using standard far field calculations
   Computation of the far field values in the frequency domain
  100%  
   Exporting of the far field values
  100%  
 --- Direction of incidence loop: 2 of 3
 Ray launching/tracing for RL-GO (all sources)
    8%   17%   27%   41%   56%   70%   82%   92%  100%  
 Determination of the impedances and powers
    0%  100%  
 Calculate the far field
   (FarField1)
   Using standard far field calculations
   Computation of the far field values in the frequency domain
  100%  
   Exporting of the far field values
  100%  
 --- Direction of incidence loop: 3 of 3
 Ray launching/tracing for RL-GO (all sources)
    7%   11%   13%   16%   18%   21%   25%   29%   33%   37%   40%   44%   47%   50%   52%   55%   57%   61%   64%   68%   71%   75%   80%   84%   87%   91%  100%  
 Determination of the impedances and powers
    0%  100%  
 Calculate the far field
   (FarField1)
   Using standard far field calculations
   Computation of the far field values in the frequency domain
  100%  
   Exporting of the far field values
  100%  
 --- Processing frequency 16 of 150 ( 9.32013E+09 Hz)
 --- Direction of incidence loop: 1 of 3
 Checking the geometrical input data (frequency dependent)
 Ray launching/tracing for RL-GO (all sources)
   14%   28%   39%   51%   64%   78%   90%  100%  
 Determination of the impedances and powers
    0%  100%  
 Calculate the far field
   (FarField1)
   Using standard far field calculations
   Computation of the far field values in the frequency domain
  100%  
   Exporting of the far field values
  100%  
 --- Direction of incidence loop: 2 of 3
 Ray launching/tracing for RL-GO (all sources)
    9%   17%   28%   41%   56%   70%   82%   92%  100%  
 Determination of the impedances and powers
    0%  100%  
 Calculate the far field
   (FarField1)
   Using standard far field calculations
   Computation of the far field values in the frequency domain
  100%  
   Exporting of the far field values
  100%  
 --- Direction of incidence loop: 3 of 3
 Ray launching/tracing for RL-GO (all sources)
    6%   10%   13%   15%   17%   21%   24%   28%   32%   36%   39%   43%   46%   50%   52%   55%   57%   61%   64%   68%   71%   75%   80%   84%   87%   91%  100%  
 Determination of the impedances and powers
    0%  100%  
 Calculate the far field
   (FarField1)
   Using standard far field calculations
   Computation of the far field values in the frequency domain
  100%  
   Exporting of the far field values
  100%  
 --- Processing frequency 17 of 150 ( 9.32148E+09 Hz)
 --- Direction of incidence loop: 1 of 3
 Checking the geometrical input data (frequency dependent)
 Ray launching/tracing for RL-GO (all sources)
   14%   28%   39%   51%   64%   77%   90%  100%  
 Determination of the impedances and powers
    0%  100%  
 Calculate the far field
   (FarField1)
   Using standard far field calculations
   Computation of the far field values in the frequency domain
  100%  
   Exporting of the far field values
  100%  
 --- Direction of incidence loop: 2 of 3
 Ray launching/tracing for RL-GO (all sources)
    8%   17%   27%   40%   56%   69%   82%   91%  100%  
 Determination of the impedances and powers
    0%  100%  
 Calculate the far field
   (FarField1)
   Using standard far field calculations
   Computation of the far field values in the frequency domain
  100%  
   Exporting of the far field values
  100%  
 --- Direction of incidence loop: 3 of 3
 Ray launching/tracing for RL-GO (all sources)
    6%   10%   13%   15%   17%   20%   23%   28%   32%   36%   39%   43%   46%   50%   52%   55%   57%   60%   64%   67%   71%   75%   80%   84%   87%   91%  100%  
 Determination of the impedances and powers
    0%  100%  
 Calculate the far field
   (FarField1)
   Using standard far field calculations
   Computation of the far field values in the frequency domain
  100%  
   Exporting of the far field values
  100%  
 --- Processing frequency 18 of 150 ( 9.32282E+09 Hz)
 --- Direction of incidence loop: 1 of 3
 Checking the geometrical input data (frequency dependent)
 Ray launching/tracing for RL-GO (all sources)
   14%   28%   39%   51%   63%   77%   89%  100%  
 Determination of the impedances and powers
    0%  100%  
 Calculate the far field
   (FarField1)
   Using standard far field calculations
   Computation of the far field values in the frequency domain
  100%  
   Exporting of the far field values
  100%  
 --- Direction of incidence loop: 2 of 3
 Ray launching/tracing for RL-GO (all sources)
    9%   17%   28%   41%   56%   70%   82%   92%  100%  
 Determination of the impedances and powers
    0%  100%  
 Calculate the far field
   (FarField1)
   Using standard far field calculations
   Computation of the far field values in the frequency domain
  100%  
   Exporting of the far field values
  100%  
 --- Direction of incidence loop: 3 of 3
 Ray launching/tracing for RL-GO (all sources)
    6%   10%   13%   15%   17%   20%   23%   28%   32%   36%   39%   42%   45%   48%   51%   53%   55%   57%   60%   64%   67%   71%   75%   80%   84%   87%   91%  100%  
 Determination of the impedances and powers
    0%  100%  
 Calculate the far field
   (FarField1)
   Using standard far field calculations
   Computation of the far field values in the frequency domain
  100%  
   Exporting of the far field values
  100%  
 --- Processing frequency 19 of 150 ( 9.32416E+09 Hz)
 --- Direction of incidence loop: 1 of 3
 Checking the geometrical input data (frequency dependent)
 Ray launching/tracing for RL-GO (all sources)
   14%   28%   39%   51%   64%   78%   90%  100%  
 Determination of the impedances and powers
    0%  100%  
 Calculate the far field
   (FarField1)
   Using standard far field calculations
   Computation of the far field values in the frequency domain
  100%  
   Exporting of the far field values
  100%  
 --- Direction of incidence loop: 2 of 3
 Ray launching/tracing for RL-GO (all sources)
    8%   17%   27%   41%   56%   69%   81%   91%  100%  
 Determination of the impedances and powers
    0%  100%  
 Calculate the far field
   (FarField1)
   Using standard far field calculations
   Computation of the far field values in the frequency domain
  100%  
   Exporting of the far field values
  100%  
 --- Direction of incidence loop: 3 of 3
 Ray launching/tracing for RL-GO (all sources)
    6%    9%   12%   15%   16%   19%   22%   26%   30%   34%   38%   42%   44%   48%   51%   53%   55%   57%   60%   64%   67%   70%   75%   80%   84%   87%   91%  100%  
 Determination of the impedances and powers
    0%  100%  
 Calculate the far field
   (FarField1)
   Using standard far field calculations
   Computation of the far field values in the frequency domain
  100%  
   Exporting of the far field values
  100%  
 --- Processing frequency 20 of 150 ( 9.32550E+09 Hz)
 --- Direction of incidence loop: 1 of 3
 Checking the geometrical input data (frequency dependent)
 Ray launching/tracing for RL-GO (all sources)
   11%   25%   36%   48%   61%   74%   87%   99%  100%  
 Determination of the impedances and powers
    0%  100%  
 Calculate the far field
   (FarField1)
   Using standard far field calculations
   Computation of the far field values in the frequency domain
  100%  
   Exporting of the far field values
  100%  
 --- Direction of incidence loop: 2 of 3
 Ray launching/tracing for RL-GO (all sources)
    8%   17%   28%   37%   48%   63%   74%   85%   94%  100%  
 Determination of the impedances and powers
    0%  100%  
 Calculate the far field
   (FarField1)
   Using standard far field calculations
   Computation of the far field values in the frequency domain
  100%  
   Exporting of the far field values
  100%  
 --- Direction of incidence loop: 3 of 3
 Ray launching/tracing for RL-GO (all sources)
    7%   11%   13%   16%   18%   21%   24%   29%   33%   37%   40%   43%   45%   48%   51%   53%   56%   58%   62%   66%   69%   74%   79%   83%   87%   91%  100%  
 Determination of the impedances and powers
    0%  100%  
 Calculate the far field
   (FarField1)
   Using standard far field calculations
   Computation of the far field values in the frequency domain
  100%  
   Exporting of the far field values
  100%  
 --- Processing frequency 21 of 150 ( 9.32685E+09 Hz)
 --- Direction of incidence loop: 1 of 3
 Checking the geometrical input data (frequency dependent)
 Ray launching/tracing for RL-GO (all sources)
   13%   27%   38%   51%   62%   76%   89%  100%  
 Determination of the impedances and powers
    0%  100%  
 Calculate the far field
   (FarField1)
   Using standard far field calculations
   Computation of the far field values in the frequency domain
  100%  
   Exporting of the far field values
  100%  
 --- Direction of incidence loop: 2 of 3
 Ray launching/tracing for RL-GO (all sources)
    9%   17%   28%   41%   56%   70%   82%   92%  100%  
 Determination of the impedances and powers
    0%  100%  
 Calculate the far field
   (FarField1)
   Using standard far field calculations
   Computation of the far field values in the frequency domain
  100%  
   Exporting of the far field values
  100%  
 --- Direction of incidence loop: 3 of 3
 Ray launching/tracing for RL-GO (all sources)
    7%   11%   13%   16%   18%   21%   24%   29%   33%   37%   40%   44%   46%   50%   52%   55%   57%   60%   64%   67%   71%   75%   80%   84%   87%   91%  100%  
 Determination of the impedances and powers
    0%  100%  
 Calculate the far field
   (FarField1)
   Using standard far field calculations
   Computation of the far field values in the frequency domain
  100%  
   Exporting of the far field values
  100%  
 --- Processing frequency 22 of 150 ( 9.32819E+09 Hz)
 --- Direction of incidence loop: 1 of 3
 Checking the geometrical input data (frequency dependent)
 Ray launching/tracing for RL-GO (all sources)
   14%   28%   39%   51%   63%   77%   89%  100%  
 Determination of the impedances and powers
    0%  100%  
 Calculate the far field
   (FarField1)
   Using standard far field calculations
   Computation of the far field values in the frequency domain
  100%  
   Exporting of the far field values
  100%  
 --- Direction of incidence loop: 2 of 3
 Ray launching/tracing for RL-GO (all sources)
    9%   17%   27%   41%   56%   70%   82%   92%  100%  
 Determination of the impedances and powers
    0%  100%  
 Calculate the far field
   (FarField1)
   Using standard far field calculations
   Computation of the far field values in the frequency domain
  100%  
   Exporting of the far field values
  100%  
 --- Direction of incidence loop: 3 of 3
 Ray launching/tracing for RL-GO (all sources)
    6%   10%   12%   14%   16%   19%   22%   26%   30%   34%   37%   40%   43%   46%   49%   51%   53%   56%   59%   63%   66%   68%   72%   76%   81%   85%   89%   94%  100%  
 Determination of the impedances and powers
    0%  100%  
 Calculate the far field
   (FarField1)
   Using standard far field calculations
   Computation of the far field values in the frequency domain
  100%  
   Exporting of the far field values
  100%  
 --- Processing frequency 23 of 150 ( 9.32953E+09 Hz)
 --- Direction of incidence loop: 1 of 3
 Checking the geometrical input data (frequency dependent)
 Ray launching/tracing for RL-GO (all sources)
   14%   28%   39%   51%   63%   77%   89%  100%  
 Determination of the impedances and powers
    0%  100%  
 Calculate the far field
   (FarField1)
   Using standard far field calculations
   Computation of the far field values in the frequency domain
  100%  
   Exporting of the far field values
  100%  
 --- Direction of incidence loop: 2 of 3
 Ray launching/tracing for RL-GO (all sources)
    8%   17%   27%   41%   56%   70%   82%   91%  100%  
 Determination of the impedances and powers
    0%  100%  
 Calculate the far field
   (FarField1)
   Using standard far field calculations
   Computation of the far field values in the frequency domain
  100%  
   Exporting of the far field values
  100%  
 --- Direction of incidence loop: 3 of 3
 Ray launching/tracing for RL-GO (all sources)
    6%   10%   12%   14%   16%   19%   22%   26%   30%   34%   37%   40%   44%   46%   49%   51%   53%   56%   59%   63%   66%   68%   72%   76%   81%   85%   89%   93%  100%  
 Determination of the impedances and powers
    0%  100%  
 Calculate the far field
   (FarField1)
   Using standard far field calculations
   Computation of the far field values in the frequency domain
  100%  
   Exporting of the far field values
  100%  
 --- Processing frequency 24 of 150 ( 9.33087E+09 Hz)
 --- Direction of incidence loop: 1 of 3
 Checking the geometrical input data (frequency dependent)
 Ray launching/tracing for RL-GO (all sources)
   14%   27%   39%   51%   63%   77%   90%  100%  
 Determination of the impedances and powers
    0%  100%  
 Calculate the far field
   (FarField1)
   Using standard far field calculations
   Computation of the far field values in the frequency domain
  100%  
   Exporting of the far field values
  100%  
 --- Direction of incidence loop: 2 of 3
 Ray launching/tracing for RL-GO (all sources)
    8%   17%   27%   40%   55%   69%   82%   91%  100%  
 Determination of the impedances and powers
    0%  100%  
 Calculate the far field
   (FarField1)
   Using standard far field calculations
   Computation of the far field values in the frequency domain
  100%  
   Exporting of the far field values
  100%  
 --- Direction of incidence loop: 3 of 3
 Ray launching/tracing for RL-GO (all sources)
    6%   10%   12%   14%   16%   19%   22%   26%   30%   34%   38%   41%   44%   47%   50%   53%   55%   57%   61%   64%   68%   71%   76%   81%   85%   89%   93%  100%  
 Determination of the impedances and powers
    0%  100%  
 Calculate the far field
   (FarField1)
   Using standard far field calculations
   Computation of the far field values in the frequency domain
  100%  
   Exporting of the far field values
  100%  
 --- Processing frequency 25 of 150 ( 9.33221E+09 Hz)
 --- Direction of incidence loop: 1 of 3
 Checking the geometrical input data (frequency dependent)
 Ray launching/tracing for RL-GO (all sources)
   14%   28%   39%   51%   64%   77%   90%  100%  
 Determination of the impedances and powers
    0%  100%  
 Calculate the far field
   (FarField1)
   Using standard far field calculations
   Computation of the far field values in the frequency domain
  100%  
   Exporting of the far field values
  100%  
 --- Direction of incidence loop: 2 of 3
 Ray launching/tracing for RL-GO (all sources)
    8%   17%   27%   41%   56%   70%   82%   91%  100%  
 Determination of the impedances and powers
    0%  100%  
 Calculate the far field
   (FarField1)
   Using standard far field calculations
   Computation of the far field values in the frequency domain
  100%  
   Exporting of the far field values
  100%  
 --- Direction of incidence loop: 3 of 3
 Ray launching/tracing for RL-GO (all sources)
    6%   10%   12%   14%   16%   19%   22%   26%   30%   33%   37%   40%   43%   46%   49%   51%   53%   56%   59%   63%   66%   68%   71%   76%   81%   85%   89%   93%  100%  
 Determination of the impedances and powers
    0%  100%  
 Calculate the far field
   (FarField1)
   Using standard far field calculations
   Computation of the far field values in the frequency domain
  100%  
   Exporting of the far field values
  100%  
 --- Processing frequency 26 of 150 ( 9.33356E+09 Hz)
 --- Direction of incidence loop: 1 of 3
 Checking the geometrical input data (frequency dependent)
 Ray launching/tracing for RL-GO (all sources)
   14%   26%   38%   50%   62%   76%   89%  100%  
 Determination of the impedances and powers
    0%  100%  
 Calculate the far field
   (FarField1)
   Using standard far field calculations
   Computation of the far field values in the frequency domain
  100%  
   Exporting of the far field values
  100%  
 --- Direction of incidence loop: 2 of 3
 Ray launching/tracing for RL-GO (all sources)
    9%   17%   28%   41%   57%   70%   82%   92%  100%  
 Determination of the impedances and powers
    0%  100%  
 Calculate the far field
   (FarField1)
   Using standard far field calculations
   Computation of the far field values in the frequency domain
  100%  
   Exporting of the far field values
  100%  
 --- Direction of incidence loop: 3 of 3
 Ray launching/tracing for RL-GO (all sources)
    6%   10%   12%   14%   16%   19%   23%   27%   31%   35%   38%   42%   44%   47%   50%   53%   55%   58%   61%   64%   68%   71%   76%   81%   85%   89%   94%  100%  
 Determination of the impedances and powers
    0%  100%  
 Calculate the far field
   (FarField1)
   Using standard far field calculations
   Computation of the far field values in the frequency domain
  100%  
   Exporting of the far field values
  100%  
 --- Processing frequency 27 of 150 ( 9.33490E+09 Hz)
 --- Direction of incidence loop: 1 of 3
 Checking the geometrical input data (frequency dependent)
 Ray launching/tracing for RL-GO (all sources)
   14%   28%   39%   51%   64%   77%   90%  100%  
 Determination of the impedances and powers
    0%  100%  
 Calculate the far field
   (FarField1)
   Using standard far field calculations
   Computation of the far field values in the frequency domain
  100%  
   Exporting of the far field values
  100%  
 --- Direction of incidence loop: 2 of 3
 Ray launching/tracing for RL-GO (all sources)
    9%   17%   28%   41%   56%   70%   82%   92%  100%  
 Determination of the impedances and powers
    0%  100%  
 Calculate the far field
   (FarField1)
   Using standard far field calculations
   Computation of the far field values in the frequency domain
  100%  
   Exporting of the far field values
  100%  
 --- Direction of incidence loop: 3 of 3
 Ray launching/tracing for RL-GO (all sources)
    6%   10%   12%   14%   16%   19%   22%   26%   30%   34%   38%   40%   43%   46%   49%   51%   53%   56%   59%   63%   65%   68%   71%   76%   81%   85%   89%   94%  100%  
 Determination of the impedances and powers
    0%  100%  
 Calculate the far field
   (FarField1)
   Using standard far field calculations
   Computation of the far field values in the frequency domain
  100%  
   Exporting of the far field values
  100%  
 --- Processing frequency 28 of 150 ( 9.33624E+09 Hz)
 --- Direction of incidence loop: 1 of 3
 Checking the geometrical input data (frequency dependent)
 Ray launching/tracing for RL-GO (all sources)
   14%   28%   39%   51%   64%   77%   90%  100%  
 Determination of the impedances and powers
    0%  100%  
 Calculate the far field
   (FarField1)
   Using standard far field calculations
   Computation of the far field values in the frequency domain
  100%  
   Exporting of the far field values
  100%  
 --- Direction of incidence loop: 2 of 3
 Ray launching/tracing for RL-GO (all sources)
    9%   17%   27%   41%   57%   70%   82%   92%  100%  
 Determination of the impedances and powers
    0%  100%  
 Calculate the far field
   (FarField1)
   Using standard far field calculations
   Computation of the far field values in the frequency domain
  100%  
   Exporting of the far field values
  100%  
 --- Direction of incidence loop: 3 of 3
 Ray launching/tracing for RL-GO (all sources)
    6%   10%   12%   14%   16%   19%   23%   26%   30%   34%   38%   42%   43%   46%   49%   51%   53%   56%   59%   63%   66%   69%   71%   75%   80%   84%   88%   92%  100%  
 Determination of the impedances and powers
    0%  100%  
 Calculate the far field
   (FarField1)
   Using standard far field calculations
   Computation of the far field values in the frequency domain
  100%  
   Exporting of the far field values
  100%  
 --- Processing frequency 29 of 150 ( 9.33758E+09 Hz)
 --- Direction of incidence loop: 1 of 3
 Checking the geometrical input data (frequency dependent)
 Ray launching/tracing for RL-GO (all sources)
   12%   26%   37%   50%   62%   75%   88%  100%  
 Determination of the impedances and powers
    0%  100%  
 Calculate the far field
   (FarField1)
   Using standard far field calculations
   Computation of the far field values in the frequency domain
  100%  
   Exporting of the far field values
  100%  
 --- Direction of incidence loop: 2 of 3
 Ray launching/tracing for RL-GO (all sources)
    8%   17%   27%   41%   56%   69%   82%   91%  100%  
 Determination of the impedances and powers
    0%  100%  
 Calculate the far field
   (FarField1)
   Using standard far field calculations
   Computation of the far field values in the frequency domain
  100%  
[...]
 Calculate the far field
   (FarField1)
   Using standard far field calculations
   Computation of the far field values in the frequency domain
  100%  
   Exporting of the far field values
  100%  
 --- Processing frequency 140 of 150 ( 9.48658E+09 Hz)
 --- Direction of incidence loop: 1 of 3
 Checking the geometrical input data (frequency dependent)
 Ray launching/tracing for RL-GO (all sources)
   14%   26%   35%   48%   61%   74%   86%  100%  
 Determination of the impedances and powers
    0%  100%  
 Calculate the far field
   (FarField1)
   Using standard far field calculations
   Computation of the far field values in the frequency domain
  100%  
   Exporting of the far field values
  100%  
 --- Direction of incidence loop: 2 of 3
 Ray launching/tracing for RL-GO (all sources)
    9%   17%   25%   37%   53%   67%   80%   89%   97%  100%  
 Determination of the impedances and powers
    0%  100%  
 Calculate the far field
   (FarField1)
   Using standard far field calculations
   Computation of the far field values in the frequency domain
  100%  
   Exporting of the far field values
  100%  
 --- Direction of incidence loop: 3 of 3
 Ray launching/tracing for RL-GO (all sources)
    7%   10%   12%   14%   17%   20%   23%   27%   30%   34%   38%   41%   44%   47%   50%   53%   55%   58%   61%   64%   68%   72%   77%   81%   84%   87%   91%  100%  
 Determination of the impedances and powers
    0%  100%  
 Calculate the far field
   (FarField1)
   Using standard far field calculations
   Computation of the far field values in the frequency domain
  100%  
   Exporting of the far field values
  100%  
 --- Processing frequency 141 of 150 ( 9.48792E+09 Hz)
 --- Direction of incidence loop: 1 of 3
 Checking the geometrical input data (frequency dependent)
 Ray launching/tracing for RL-GO (all sources)
   14%   27%   37%   49%   62%   74%   86%  100%  
 Determination of the impedances and powers
    0%  100%  
 Calculate the far field
   (FarField1)
   Using standard far field calculations
   Computation of the far field values in the frequency domain
  100%  
   Exporting of the far field values
  100%  
 --- Direction of incidence loop: 2 of 3
 Ray launching/tracing for RL-GO (all sources)
    9%   16%   25%   36%   52%   66%   79%   88%   96%  100%  
 Determination of the impedances and powers
    0%  100%  
 Calculate the far field
   (FarField1)
   Using standard far field calculations
   Computation of the far field values in the frequency domain
  100%  
   Exporting of the far field values
  100%  
 --- Direction of incidence loop: 3 of 3
 Ray launching/tracing for RL-GO (all sources)
    6%   10%   13%   15%   17%   21%   24%   28%   32%   35%   38%   41%   44%   47%   49%   52%   54%   57%   59%   61%   65%   69%   73%   78%   81%   84%   87%   92%  100%  
 Determination of the impedances and powers
    0%  100%  
 Calculate the far field
   (FarField1)
   Using standard far field calculations
   Computation of the far field values in the frequency domain
  100%  
   Exporting of the far field values
  100%  
 --- Processing frequency 142 of 150 ( 9.48926E+09 Hz)
 --- Direction of incidence loop: 1 of 3
 Checking the geometrical input data (frequency dependent)
 Ray launching/tracing for RL-GO (all sources)
   13%   26%   37%   49%   62%   74%   86%  100%  
 Determination of the impedances and powers
    0%  100%  
 Calculate the far field
   (FarField1)
   Using standard far field calculations
   Computation of the far field values in the frequency domain
  100%  
   Exporting of the far field values
  100%  
 --- Direction of incidence loop: 2 of 3
 Ray launching/tracing for RL-GO (all sources)
    9%   16%   25%   37%   53%   67%   80%   89%   98%  100%  
 Determination of the impedances and powers
    0%  100%  
 Calculate the far field
   (FarField1)
   Using standard far field calculations
   Computation of the far field values in the frequency domain
  100%  
   Exporting of the far field values
  100%  
 --- Direction of incidence loop: 3 of 3
 Ray launching/tracing for RL-GO (all sources)
    3%    7%   11%   13%   15%   18%   21%   25%   28%   33%   35%   39%   42%   44%   48%   51%   53%   55%   58%   61%   65%   69%   73%   78%   82%   85%   88%   93%  100%  
 Determination of the impedances and powers
    0%  100%  
 Calculate the far field
   (FarField1)
   Using standard far field calculations
   Computation of the far field values in the frequency domain
  100%  
   Exporting of the far field values
  100%  
 --- Processing frequency 143 of 150 ( 9.49060E+09 Hz)
 --- Direction of incidence loop: 1 of 3
 Checking the geometrical input data (frequency dependent)
 Ray launching/tracing for RL-GO (all sources)
   14%   27%   37%   50%   62%   74%   85%   94%  100%  
 Determination of the impedances and powers
    0%  100%  
 Calculate the far field
   (FarField1)
   Using standard far field calculations
   Computation of the far field values in the frequency domain
  100%  
   Exporting of the far field values
  100%  
 --- Direction of incidence loop: 2 of 3
 Ray launching/tracing for RL-GO (all sources)
    9%   16%   25%   37%   53%   66%   79%   88%   97%  100%  
 Determination of the impedances and powers
    0%  100%  
 Calculate the far field
   (FarField1)
   Using standard far field calculations
   Computation of the far field values in the frequency domain
  100%  
   Exporting of the far field values
  100%  
 --- Direction of incidence loop: 3 of 3
 Ray launching/tracing for RL-GO (all sources)
    6%   10%   13%   15%   17%   21%   24%   28%   32%   35%   38%   41%   44%   47%   49%   52%   54%   56%   59%   63%   66%   71%   75%   79%   83%   86%   91%  100%  
 Determination of the impedances and powers
    0%  100%  
 Calculate the far field
   (FarField1)
   Using standard far field calculations
   Computation of the far field values in the frequency domain
  100%  
   Exporting of the far field values
  100%  
 --- Processing frequency 144 of 150 ( 9.49195E+09 Hz)
 --- Direction of incidence loop: 1 of 3
 Checking the geometrical input data (frequency dependent)
 Ray launching/tracing for RL-GO (all sources)
   14%   27%   37%   50%   62%   74%   87%  100%  
 Determination of the impedances and powers
    0%  100%  
 Calculate the far field
   (FarField1)
   Using standard far field calculations
   Computation of the far field values in the frequency domain
  100%  
   Exporting of the far field values
  100%  
 --- Direction of incidence loop: 2 of 3
 Ray launching/tracing for RL-GO (all sources)
    9%   16%   25%   37%   53%   67%   80%   89%  100%  
 Determination of the impedances and powers
    0%  100%  
 Calculate the far field
   (FarField1)
   Using standard far field calculations
   Computation of the far field values in the frequency domain
  100%  
   Exporting of the far field values
  100%  
 --- Direction of incidence loop: 3 of 3
 Ray launching/tracing for RL-GO (all sources)
    6%   10%   13%   15%   17%   21%   24%   28%   32%   35%   38%   41%   44%   47%   49%   51%   54%   56%   59%   61%   65%   69%   73%   77%   81%   83%   86%   91%  100%  
 Determination of the impedances and powers
    0%  100%  
 Calculate the far field
   (FarField1)
   Using standard far field calculations
   Computation of the far field values in the frequency domain
  100%  
   Exporting of the far field values
  100%  
 --- Processing frequency 145 of 150 ( 9.49329E+09 Hz)
 --- Direction of incidence loop: 1 of 3
 Checking the geometrical input data (frequency dependent)
 Ray launching/tracing for RL-GO (all sources)
   14%   24%   34%   46%   59%   72%   85%   95%  100%  
 Determination of the impedances and powers
    0%  100%  
 Calculate the far field
   (FarField1)
   Using standard far field calculations
   Computation of the far field values in the frequency domain
  100%  
   Exporting of the far field values
  100%  
 --- Direction of incidence loop: 2 of 3
 Ray launching/tracing for RL-GO (all sources)
    9%   16%   25%   37%   53%   66%   79%   88%   97%  100%  
 Determination of the impedances and powers
    0%  100%  
 Calculate the far field
   (FarField1)
   Using standard far field calculations
   Computation of the far field values in the frequency domain
  100%  
   Exporting of the far field values
  100%  
 --- Direction of incidence loop: 3 of 3
 Ray launching/tracing for RL-GO (all sources)
    6%   10%   13%   15%   17%   21%   24%   28%   32%   35%   38%   40%   43%   46%   48%   51%   54%   56%   59%   63%   66%   71%   75%   79%   83%   86%   91%  100%  
 Determination of the impedances and powers
    0%  100%  
 Calculate the far field
   (FarField1)
   Using standard far field calculations
   Computation of the far field values in the frequency domain
  100%  
   Exporting of the far field values
  100%  
 --- Processing frequency 146 of 150 ( 9.49463E+09 Hz)
 --- Direction of incidence loop: 1 of 3
 Checking the geometrical input data (frequency dependent)
 Ray launching/tracing for RL-GO (all sources)
   14%   28%   38%   51%   63%   77%   89%  100%  
 Determination of the impedances and powers
    0%  100%  
 Calculate the far field
   (FarField1)
   Using standard far field calculations
   Computation of the far field values in the frequency domain
  100%  
   Exporting of the far field values
  100%  
 --- Direction of incidence loop: 2 of 3
 Ray launching/tracing for RL-GO (all sources)
    9%   17%   25%   38%   53%   67%   80%   89%  100%  
 Determination of the impedances and powers
    0%  100%  
 Calculate the far field
   (FarField1)
   Using standard far field calculations
   Computation of the far field values in the frequency domain
  100%  
   Exporting of the far field values
  100%  
 --- Direction of incidence loop: 3 of 3
 Ray launching/tracing for RL-GO (all sources)
    6%    8%   12%   14%   16%   20%   23%   27%   28%   33%   35%   39%   42%   44%   48%   50%   53%   55%   57%   60%   61%   65%   69%   73%   77%   81%   84%   86%   90%  100%  
 Determination of the impedances and powers
    0%  100%  
 Calculate the far field
   (FarField1)
   Using standard far field calculations
   Computation of the far field values in the frequency domain
  100%  
   Exporting of the far field values
  100%  
 --- Processing frequency 147 of 150 ( 9.49597E+09 Hz)
 --- Direction of incidence loop: 1 of 3
 Checking the geometrical input data (frequency dependent)
 Ray launching/tracing for RL-GO (all sources)
   14%   28%   38%   51%   63%   77%   89%  100%  
 Determination of the impedances and powers
    0%  100%  
 Calculate the far field
   (FarField1)
   Using standard far field calculations
   Computation of the far field values in the frequency domain
  100%  
   Exporting of the far field values
  100%  
 --- Direction of incidence loop: 2 of 3
 Ray launching/tracing for RL-GO (all sources)
    9%   16%   25%   37%   53%   66%   79%   88%   98%  100%  
 Determination of the impedances and powers
    0%  100%  
 Calculate the far field
   (FarField1)
   Using standard far field calculations
   Computation of the far field values in the frequency domain
  100%  
   Exporting of the far field values
  100%  
 --- Direction of incidence loop: 3 of 3
 Ray launching/tracing for RL-GO (all sources)
    7%   11%   13%   15%   18%   21%   25%   28%   33%   35%   39%   42%   44%   48%   50%   53%   54%   57%   60%   64%   67%   71%   76%   79%   83%   86%   91%  100%  
 Determination of the impedances and powers
    0%  100%  
 Calculate the far field
   (FarField1)
   Using standard far field calculations
   Computation of the far field values in the frequency domain
  100%  
   Exporting of the far field values
  100%  
 --- Processing frequency 148 of 150 ( 9.49732E+09 Hz)
 --- Direction of incidence loop: 1 of 3
 Checking the geometrical input data (frequency dependent)
 Ray launching/tracing for RL-GO (all sources)
   14%   28%   36%   48%   60%   73%   86%   96%  100%  
 Determination of the impedances and powers
    0%  100%  
 Calculate the far field
   (FarField1)
   Using standard far field calculations
   Computation of the far field values in the frequency domain
  100%  
   Exporting of the far field values
  100%  
 --- Direction of incidence loop: 2 of 3
 Ray launching/tracing for RL-GO (all sources)
    9%   17%   25%   37%   53%   67%   80%   89%   98%  100%  
 Determination of the impedances and powers
    0%  100%  
 Calculate the far field
   (FarField1)
   Using standard far field calculations
   Computation of the far field values in the frequency domain
  100%  
   Exporting of the far field values
  100%  
 --- Direction of incidence loop: 3 of 3
 Ray launching/tracing for RL-GO (all sources)
    7%   11%   13%   15%   18%   21%   25%   28%   33%   35%   39%   42%   44%   48%   50%   53%   55%   57%   60%   64%   67%   71%   76%   79%   83%   86%   91%  100%  
 Determination of the impedances and powers
    0%  100%  
 Calculate the far field
   (FarField1)
   Using standard far field calculations
   Computation of the far field values in the frequency domain
  100%  
   Exporting of the far field values
  100%  
 --- Processing frequency 149 of 150 ( 9.49866E+09 Hz)
 --- Direction of incidence loop: 1 of 3
 Checking the geometrical input data (frequency dependent)
 Ray launching/tracing for RL-GO (all sources)
   14%   28%   38%   51%   63%   76%   89%  100%  
 Determination of the impedances and powers
    0%  100%  
 Calculate the far field
   (FarField1)
   Using standard far field calculations
   Computation of the far field values in the frequency domain
  100%  
   Exporting of the far field values
  100%  
 --- Direction of incidence loop: 2 of 3
 Ray launching/tracing for RL-GO (all sources)
    9%   17%   25%   37%   53%   67%   80%   89%   99%  100%  
 Determination of the impedances and powers
    0%  100%  
 Calculate the far field
   (FarField1)
   Using standard far field calculations
   Computation of the far field values in the frequency domain
  100%  
   Exporting of the far field values
  100%  
 --- Direction of incidence loop: 3 of 3
 Ray launching/tracing for RL-GO (all sources)
    6%   10%   13%   15%   17%   21%   24%   28%   32%   35%   38%   41%   44%   47%   49%   52%   54%   57%   59%   63%   66%   71%   75%   79%   83%   86%   91%  100%  
 Determination of the impedances and powers
    0%  100%  
 Calculate the far field
   (FarField1)
   Using standard far field calculations
   Computation of the far field values in the frequency domain
  100%  
   Exporting of the far field values
  100%  
 --- Processing frequency 150 of 150 ( 9.50000E+09 Hz)
 --- Direction of incidence loop: 1 of 3
 Checking the geometrical input data (frequency dependent)
 Ray launching/tracing for RL-GO (all sources)
   14%   28%   38%   51%   63%   76%   88%  100%  
 Determination of the impedances and powers
    0%  100%  
 Calculate the far field
   (FarField1)
   Using standard far field calculations
   Computation of the far field values in the frequency domain
  100%  
   Exporting of the far field values
  100%  
 --- Direction of incidence loop: 2 of 3
 Ray launching/tracing for RL-GO (all sources)
    9%   16%   25%   37%   53%   67%   80%   89%   98%  100%  
 Determination of the impedances and powers
    0%  100%  
 Calculate the far field
   (FarField1)
   Using standard far field calculations
   Computation of the far field values in the frequency domain
  100%  
   Exporting of the far field values
  100%  
 --- Direction of incidence loop: 3 of 3
 Ray launching/tracing for RL-GO (all sources)
    6%   10%   13%   15%   17%   21%   24%   28%   32%   35%   38%   41%   44%   47%   49%   51%   54%   56%   59%   63%   66%   71%   75%   79%   82%   85%   90%  100%  
 Determination of the impedances and powers
    0%  100%  
 Calculate the far field
   (FarField1)
   Using standard far field calculations
   Computation of the far field values in the frequency domain
  100%  
   Exporting of the far field values
  100%  

Finished


PS:

Read file <7673547.output> for stderr output of this job.

